* File: mod_5_counter.pex.netlist.pex
* Created: Wed Sep 15 12:01:39 2021
* Program "Calibre xRC"
* Version "v2017.1_34.33"
* Nominal Temperature: 25C
* Circuit Temperature: 25C
* 
.subckt PM_MOD_5_COUNTER_XI0.XI0.NET20 10 11
r0 3 10 5.5 !w=2e-07 !layer=NSD_C !X=1.975 !Y=1.005 !X2=2.075 !Y2=1.005
r1 3 11 5.5 !w=2e-07 !layer=NSD_C !X=1.975 !Y=1.005 !X2=1.875 !Y2=1.005
.ends

.subckt PM_MOD_5_COUNTER_XI0.XI0.NET21 14 17
r0 10 11 0.183812 !w=1.28e-07 !layer=ME1_C !X=2.37 !Y=0.997 !X2=2.52 !Y2=0.997
r1 9 17 5.5 !w=2e-07 !layer=NSD_C !X=2.67 !Y=1.005 !X2=2.77 !Y2=1.005
r2 8 11 0.151492 !w=1.44e-07 !layer=ME1_C !X=2.67 !Y=0.997 !X2=2.52 !Y2=0.997
r3 8 9 35 !w=9e-08 !layer=DIF_CONT_C !X=2.67 !Y=1.005 !X2=2.67 !Y2=1.005
r4 3 14 5.5 !w=2e-07 !layer=NSD_C !X=2.235 !Y=1.005 !X2=2.135 !Y2=1.005
r5 2 10 0.15407 !w=1.34e-07 !layer=ME1_C !X=2.235 !Y=0.997 !X2=2.37 !Y2=0.997
r6 2 3 35 !w=9e-08 !layer=DIF_CONT_C !X=2.235 !Y=1.005 !X2=2.235 !Y2=1.005
.ends

.subckt PM_MOD_5_COUNTER_XI0.XI1.NET20 10 11
r0 3 10 5.5 !w=2e-07 !layer=NSD_C !X=5.555 !Y=1.005 !X2=5.655 !Y2=1.005
r1 3 11 5.5 !w=2e-07 !layer=NSD_C !X=5.555 !Y=1.005 !X2=5.455 !Y2=1.005
.ends

.subckt PM_MOD_5_COUNTER_XI0.XI1.NET21 14 17
r0 10 11 0.183812 !w=1.28e-07 !layer=ME1_C !X=5.95 !Y=0.997 !X2=6.1 !Y2=0.997
r1 9 17 5.5 !w=2e-07 !layer=NSD_C !X=6.25 !Y=1.005 !X2=6.35 !Y2=1.005
r2 8 11 0.151492 !w=1.44e-07 !layer=ME1_C !X=6.25 !Y=0.997 !X2=6.1 !Y2=0.997
r3 8 9 35 !w=9e-08 !layer=DIF_CONT_C !X=6.25 !Y=1.005 !X2=6.25 !Y2=1.005
r4 3 14 5.5 !w=2e-07 !layer=NSD_C !X=5.815 !Y=1.005 !X2=5.715 !Y2=1.005
r5 2 10 0.15407 !w=1.34e-07 !layer=ME1_C !X=5.815 !Y=0.997 !X2=5.95 !Y2=0.997
r6 2 3 35 !w=9e-08 !layer=DIF_CONT_C !X=5.815 !Y=1.005 !X2=5.815 !Y2=1.005
.ends

.subckt PM_MOD_5_COUNTER_XI1.XI0.NET21 10 11
r0 3 10 5.5 !w=2e-07 !layer=NSD_C !X=24.465 !Y=1.005 !X2=24.565 !Y2=1.005
r1 3 11 5.5 !w=2e-07 !layer=NSD_C !X=24.465 !Y=1.005 !X2=24.365 !Y2=1.005
.ends

.subckt PM_MOD_5_COUNTER_XI1.XI0.NET20 14 17
r0 10 11 0.183812 !w=1.28e-07 !layer=ME1_C !X=24.86 !Y=0.997 !X2=25.01 !Y2=0.997
r1 9 17 5.5 !w=2e-07 !layer=NSD_C !X=25.16 !Y=1.005 !X2=25.26 !Y2=1.005
r2 8 11 0.151492 !w=1.44e-07 !layer=ME1_C !X=25.16 !Y=0.997 !X2=25.01 !Y2=0.997
r3 8 9 35 !w=9e-08 !layer=DIF_CONT_C !X=25.16 !Y=1.005 !X2=25.16 !Y2=1.005
r4 3 14 5.5 !w=2e-07 !layer=NSD_C !X=24.725 !Y=1.005 !X2=24.625 !Y2=1.005
r5 2 10 0.15407 !w=1.34e-07 !layer=ME1_C !X=24.725 !Y=0.997 !X2=24.86 !Y2=0.997
r6 2 3 35 !w=9e-08 !layer=DIF_CONT_C !X=24.725 !Y=1.005 !X2=24.725 !Y2=1.005
.ends

.subckt PM_MOD_5_COUNTER_XI1.XI1.NET20 10 11
r0 3 10 5.5 !w=2e-07 !layer=NSD_C !X=28.045 !Y=1.005 !X2=28.145 !Y2=1.005
r1 3 11 5.5 !w=2e-07 !layer=NSD_C !X=28.045 !Y=1.005 !X2=27.945 !Y2=1.005
.ends

.subckt PM_MOD_5_COUNTER_XI1.XI1.NET21 14 17
r0 10 11 0.183812 !w=1.28e-07 !layer=ME1_C !X=28.44 !Y=0.997 !X2=28.59 !Y2=0.997
r1 9 17 5.5 !w=2e-07 !layer=NSD_C !X=28.74 !Y=1.005 !X2=28.84 !Y2=1.005
r2 8 11 0.151492 !w=1.44e-07 !layer=ME1_C !X=28.74 !Y=0.997 !X2=28.59 !Y2=0.997
r3 8 9 35 !w=9e-08 !layer=DIF_CONT_C !X=28.74 !Y=1.005 !X2=28.74 !Y2=1.005
r4 3 14 5.5 !w=2e-07 !layer=NSD_C !X=28.305 !Y=1.005 !X2=28.205 !Y2=1.005
r5 2 10 0.15407 !w=1.34e-07 !layer=ME1_C !X=28.305 !Y=0.997 !X2=28.44 !Y2=0.997
r6 2 3 35 !w=9e-08 !layer=DIF_CONT_C !X=28.305 !Y=1.005 !X2=28.305 !Y2=1.005
.ends

.subckt PM_MOD_5_COUNTER_XI2.XI0.NET21 10 11
r0 3 10 5.5 !w=2e-07 !layer=NSD_C !X=50.075 !Y=1.005 !X2=50.175 !Y2=1.005
r1 3 11 5.5 !w=2e-07 !layer=NSD_C !X=50.075 !Y=1.005 !X2=49.975 !Y2=1.005
.ends

.subckt PM_MOD_5_COUNTER_XI2.XI0.NET20 14 17
r0 10 11 0.183812 !w=1.28e-07 !layer=ME1_C !X=50.47 !Y=0.997 !X2=50.62 !Y2=0.997
r1 9 17 5.5 !w=2e-07 !layer=NSD_C !X=50.77 !Y=1.005 !X2=50.87 !Y2=1.005
r2 8 11 0.151492 !w=1.44e-07 !layer=ME1_C !X=50.77 !Y=0.997 !X2=50.62 !Y2=0.997
r3 8 9 35 !w=9e-08 !layer=DIF_CONT_C !X=50.77 !Y=1.005 !X2=50.77 !Y2=1.005
r4 3 14 5.5 !w=2e-07 !layer=NSD_C !X=50.335 !Y=1.005 !X2=50.235 !Y2=1.005
r5 2 10 0.15407 !w=1.34e-07 !layer=ME1_C !X=50.335 !Y=0.997 !X2=50.47 !Y2=0.997
r6 2 3 35 !w=9e-08 !layer=DIF_CONT_C !X=50.335 !Y=1.005 !X2=50.335 !Y2=1.005
.ends

.subckt PM_MOD_5_COUNTER_XI2.XI1.NET20 10 11
r0 3 10 5.5 !w=2e-07 !layer=NSD_C !X=53.655 !Y=1.005 !X2=53.755 !Y2=1.005
r1 3 11 5.5 !w=2e-07 !layer=NSD_C !X=53.655 !Y=1.005 !X2=53.555 !Y2=1.005
.ends

.subckt PM_MOD_5_COUNTER_XI2.XI1.NET21 14 17
r0 10 11 0.183812 !w=1.28e-07 !layer=ME1_C !X=54.05 !Y=0.997 !X2=54.2 !Y2=0.997
r1 9 17 5.5 !w=2e-07 !layer=NSD_C !X=54.35 !Y=1.005 !X2=54.45 !Y2=1.005
r2 8 11 0.151492 !w=1.44e-07 !layer=ME1_C !X=54.35 !Y=0.997 !X2=54.2 !Y2=0.997
r3 8 9 35 !w=9e-08 !layer=DIF_CONT_C !X=54.35 !Y=1.005 !X2=54.35 !Y2=1.005
r4 3 14 5.5 !w=2e-07 !layer=NSD_C !X=53.915 !Y=1.005 !X2=53.815 !Y2=1.005
r5 2 10 0.15407 !w=1.34e-07 !layer=ME1_C !X=53.915 !Y=0.997 !X2=54.05 !Y2=0.997
r6 2 3 35 !w=9e-08 !layer=DIF_CONT_C !X=53.915 !Y=1.005 !X2=53.915 !Y2=1.005
.ends

.subckt PM_MOD_5_COUNTER_XI0.XI10.XI0.NET17 1 2
r0 1 2 11 !w=2e-07 !layer=NSD_C !X=9.21 !Y=1.005 !X2=9.01 !Y2=1.005
.ends

.subckt PM_MOD_5_COUNTER_XI0.XI10.XI1.NET17 1 2
r0 1 2 11 !w=2e-07 !layer=NSD_C !X=10.465 !Y=1.005 !X2=10.265 !Y2=1.005
.ends

.subckt PM_MOD_5_COUNTER_XI0.XI11.XI0.NET17 1 2
r0 1 2 11 !w=2e-07 !layer=NSD_C !X=19.845 !Y=1.005 !X2=19.645 !Y2=1.005
.ends

.subckt PM_MOD_5_COUNTER_XI0.XI11.XI1.NET17 1 2
r0 1 2 11 !w=2e-07 !layer=NSD_C !X=21.1 !Y=1.005 !X2=20.9 !Y2=1.005
.ends

.subckt PM_MOD_5_COUNTER_XI1.XI10.XI0.NET17 1 2
r0 1 2 11 !w=2e-07 !layer=NSD_C !X=31.7 !Y=1.005 !X2=31.5 !Y2=1.005
.ends

.subckt PM_MOD_5_COUNTER_XI1.XI10.XI1.NET17 1 2
r0 1 2 11 !w=2e-07 !layer=NSD_C !X=32.955 !Y=1.005 !X2=32.755 !Y2=1.005
.ends

.subckt PM_MOD_5_COUNTER_XI1.XI11.XI0.NET17 1 2
r0 1 2 11 !w=2e-07 !layer=NSD_C !X=42.335 !Y=1.005 !X2=42.135 !Y2=1.005
.ends

.subckt PM_MOD_5_COUNTER_XI1.XI11.XI1.NET17 1 2
r0 1 2 11 !w=2e-07 !layer=NSD_C !X=43.59 !Y=1.005 !X2=43.39 !Y2=1.005
.ends

.subckt PM_MOD_5_COUNTER_XI2.XI10.XI0.NET17 1 2
r0 1 2 11 !w=2e-07 !layer=NSD_C !X=57.31 !Y=1.005 !X2=57.11 !Y2=1.005
.ends

.subckt PM_MOD_5_COUNTER_XI2.XI10.XI1.NET17 1 2
r0 1 2 11 !w=2e-07 !layer=NSD_C !X=58.565 !Y=1.005 !X2=58.365 !Y2=1.005
.ends

.subckt PM_MOD_5_COUNTER_XI2.XI11.XI0.NET17 1 2
r0 1 2 11 !w=2e-07 !layer=NSD_C !X=67.945 !Y=1.005 !X2=67.745 !Y2=1.005
.ends

.subckt PM_MOD_5_COUNTER_XI2.XI11.XI1.NET17 1 2
r0 1 2 11 !w=2e-07 !layer=NSD_C !X=69.2 !Y=1.005 !X2=69 !Y2=1.005
.ends

.subckt PM_MOD_5_COUNTER_XI0.XI4.NET17 1 2
r0 1 2 11 !w=2e-07 !layer=NSD_C !X=15.075 !Y=1.005 !X2=14.875 !Y2=1.005
.ends

.subckt PM_MOD_5_COUNTER_XI0.XI5.NET17 1 2
r0 1 2 11 !w=2e-07 !layer=NSD_C !X=17.43 !Y=1.005 !X2=17.23 !Y2=1.005
.ends

.subckt PM_MOD_5_COUNTER_XI1.XI4.NET17 1 2
r0 1 2 11 !w=2e-07 !layer=NSD_C !X=37.565 !Y=1.005 !X2=37.365 !Y2=1.005
.ends

.subckt PM_MOD_5_COUNTER_XI1.XI5.NET17 1 2
r0 1 2 11 !w=2e-07 !layer=NSD_C !X=39.92 !Y=1.005 !X2=39.72 !Y2=1.005
.ends

.subckt PM_MOD_5_COUNTER_XI2.XI4.NET17 1 2
r0 1 2 11 !w=2e-07 !layer=NSD_C !X=63.175 !Y=1.005 !X2=62.975 !Y2=1.005
.ends

.subckt PM_MOD_5_COUNTER_XI2.XI5.NET17 1 2
r0 1 2 11 !w=2e-07 !layer=NSD_C !X=65.53 !Y=1.005 !X2=65.33 !Y2=1.005
.ends

.subckt PM_MOD_5_COUNTER_XI0.NET22 13 18 23 28 64 67
r0 111 112 2 !w=1e-07 !layer=VIA2_C !X=8.185 !Y=1.23 !X2=8.185 !Y2=1.23
r1 109 111 0.66 !w=1e-07 !layer=ME3_C !X=7.745 !Y=1.23 !X2=8.185 !Y2=1.23
r2 108 109 0.0838093 !w=1e-07 !layer=ME3_C !X=7.695 !Y=1.18 !X2=7.745 !Y2=1.23
r3 107 108 0.091 !w=1.48e-07 !layer=ME3_C !X=7.695 !Y=1.08 !X2=7.695 !Y2=1.18
r4 104 105 2 !w=1e-07 !layer=VIA2_C !X=7.46 !Y=1.03 !X2=7.46 !Y2=1.03
r5 102 107 0.0838093 !w=1e-07 !layer=ME3_C !X=7.645 !Y=1.03 !X2=7.695 !Y2=1.08
r6 102 104 0.174585 !w=1.44e-07 !layer=ME3_C !X=7.645 !Y=1.03 !X2=7.46 !Y2=1.03
r7 82 87 0.099885 !w=1.4e-07 !layer=ME1_C !X=10.85 !Y=1.245 !X2=10.77 !Y2=1.245
r8 81 112 3.9975 !w=1e-07 !layer=ME2_C !X=10.85 !Y=1.23 !X2=8.185 !Y2=1.23
r9 81 82 2 !w=1e-07 !layer=VIA1_C !X=10.85 !Y=1.23 !X2=10.85 !Y2=1.23
r10 79 80 0.00496015 !w=1.5e-07 !layer=ME1_C !X=10.55 !Y=1.255 !X2=10.555
+ !Y2=1.255
r11 77 85 11.3264 !w=1.68e-07 !layer=PLY_C !X=10.52 !Y=1.255 !X2=10.52 !Y2=1.34
r12 77 84 11.3264 !w=1.68e-07 !layer=PLY_C !X=10.52 !Y=1.255 !X2=10.52 !Y2=1.17
r13 76 79 0.0269333 !w=1.58e-07 !layer=ME1_C !X=10.52 !Y=1.255 !X2=10.55
+ !Y2=1.255
r14 76 77 30 !w=9e-08 !layer=PO_CONT_C !X=10.52 !Y=1.255 !X2=10.52 !Y2=1.255
r15 74 87 0.0522714 !w=1.22e-07 !layer=ME1_C !X=10.73 !Y=1.255 !X2=10.77
+ !Y2=1.255
r16 73 74 0.0522714 !w=1.22e-07 !layer=ME1_C !X=10.69 !Y=1.255 !X2=10.73
+ !Y2=1.255
r17 72 80 0.0439221 !w=1.43e-07 !layer=ME1_C !X=10.595 !Y=1.255 !X2=10.555
+ !Y2=1.255
r18 72 73 0.157769 !w=1.05e-07 !layer=ME1_C !X=10.595 !Y=1.255 !X2=10.69
+ !Y2=1.255
r19 67 85 57 !w=5.8e-08 !layer=PLY_C !X=10.495 !Y=1.625 !X2=10.495 !Y2=1.34
r20 64 84 33 !w=6e-08 !layer=PLY_C !X=10.495 !Y=1.005 !X2=10.495 !Y2=1.17
r21 55 56 0.12963 !w=1.53e-07 !layer=ME1_C !X=7.002 !Y=1.3 !X2=7.002 !Y2=1.44
r22 30 31 35 !w=9e-08 !layer=DIF_CONT_C !X=6.51 !Y=1.005 !X2=6.51 !Y2=1.005
r23 28 30 5.5 !w=2e-07 !layer=NSD_C !X=6.41 !Y=1.005 !X2=6.51 !Y2=1.005
r24 25 26 17.5 !w=9e-08 !layer=DIF_CONT_C !X=6.51 !Y=1.515 !X2=6.51 !Y2=1.515
r25 23 25 2.25 !w=4e-07 !layer=PSD_C !X=6.41 !Y=1.615 !X2=6.51 !Y2=1.615
r26 20 21 17.5 !w=9e-08 !layer=DIF_CONT_C !X=5.815 !Y=1.515 !X2=5.815 !Y2=1.515
r27 18 20 2.25 !w=4e-07 !layer=PSD_C !X=5.715 !Y=1.615 !X2=5.815 !Y2=1.615
r28 15 16 17.5 !w=9e-08 !layer=DIF_CONT_C !X=5.295 !Y=1.515 !X2=5.295 !Y2=1.515
r29 13 15 2.25 !w=4e-07 !layer=PSD_C !X=5.395 !Y=1.615 !X2=5.295 !Y2=1.615
r30 12 16 0.119284 !w=1.44e-07 !layer=ME1_C !X=5.297 !Y=1.63 !X2=5.297 !Y2=1.515
r31 11 12 2 !w=1e-07 !layer=VIA1_C !X=5.295 !Y=1.63 !X2=5.295 !Y2=1.63
r32 10 21 0.122692 !w=1.41e-07 !layer=ME1_C !X=5.82 !Y=1.63 !X2=5.82 !Y2=1.515
r33 9 11 0.78 !w=1e-07 !layer=ME2_C !X=5.815 !Y=1.63 !X2=5.295 !Y2=1.63
r34 9 10 2 !w=1e-07 !layer=VIA1_C !X=5.815 !Y=1.63 !X2=5.815 !Y2=1.63
r35 8 26 0.118251 !w=1.45e-07 !layer=ME1_C !X=6.512 !Y=1.63 !X2=6.512 !Y2=1.515
r36 7 9 1.05 !w=1e-07 !layer=ME2_C !X=6.515 !Y=1.63 !X2=5.815 !Y2=1.63
r37 7 8 2 !w=1e-07 !layer=VIA1_C !X=6.515 !Y=1.63 !X2=6.515 !Y2=1.63
r38 6 56 0.176082 !w=1.53e-07 !layer=ME1_C !X=7.002 !Y=1.63 !X2=7.002 !Y2=1.44
r39 5 7 0.735 !w=1e-07 !layer=ME2_C !X=7.005 !Y=1.63 !X2=6.515 !Y2=1.63
r40 5 6 2 !w=1e-07 !layer=VIA1_C !X=7.005 !Y=1.63 !X2=7.005 !Y2=1.63
r41 3 31 2 !w=1e-07 !layer=VIA1_C !X=6.51 !Y=1.03 !X2=6.51 !Y2=1.03
r42 2 55 0.280059 !w=1.44e-07 !layer=ME1_C !X=7.002 !Y=1.03 !X2=7.002 !Y2=1.3
r43 1 105 0.6825 !w=1e-07 !layer=ME2_C !X=7.005 !Y=1.03 !X2=7.46 !Y2=1.03
r44 1 3 0.7425 !w=1e-07 !layer=ME2_C !X=7.005 !Y=1.03 !X2=6.51 !Y2=1.03
r45 1 2 2 !w=1e-07 !layer=VIA1_C !X=7.005 !Y=1.03 !X2=7.005 !Y2=1.03
.ends

.subckt PM_MOD_5_COUNTER_XI0.NET23 13 18 23 28 64 67
r0 114 115 2 !w=1e-07 !layer=VIA2_C !X=8.215 !Y=1.43 !X2=8.215 !Y2=1.43
r1 112 114 0.705 !w=1e-07 !layer=ME3_C !X=7.745 !Y=1.43 !X2=8.215 !Y2=1.43
r2 110 112 0.0838093 !w=1e-07 !layer=ME3_C !X=7.695 !Y=1.48 !X2=7.745 !Y2=1.43
r3 110 111 0.091 !w=1.48e-07 !layer=ME3_C !X=7.695 !Y=1.48 !X2=7.695 !Y2=1.58
r4 108 109 1.33668 !w=1.24e-07 !layer=ME3_C !X=5.285 !Y=1.63 !X2=6.465 !Y2=1.63
r5 107 108 0.0118548 !w=1.2e-07 !layer=ME3_C !X=5.275 !Y=1.63 !X2=5.285 !Y2=1.63
r6 106 107 1.815 !w=1e-07 !layer=ME3_C !X=4.065 !Y=1.63 !X2=5.275 !Y2=1.63
r7 103 106 0.226556 !w=1.24e-07 !layer=ME3_C !X=3.865 !Y=1.63 !X2=4.065 !Y2=1.63
r8 103 104 2 !w=1e-07 !layer=VIA2_C !X=3.865 !Y=1.63 !X2=3.865 !Y2=1.63
r9 101 111 0.0838093 !w=1e-07 !layer=ME3_C !X=7.645 !Y=1.63 !X2=7.695 !Y2=1.58
r10 101 109 1.33668 !w=1.24e-07 !layer=ME3_C !X=7.645 !Y=1.63 !X2=6.465 !Y2=1.63
r11 82 115 0.375 !w=1e-07 !layer=ME2_C !X=8.465 !Y=1.43 !X2=8.215 !Y2=1.43
r12 82 83 2 !w=1e-07 !layer=VIA1_C !X=8.465 !Y=1.43 !X2=8.465 !Y2=1.43
r13 79 80 0.00983738 !w=1.51e-07 !layer=ME1_C !X=8.92 !Y=1.26 !X2=8.93 !Y2=1.26
r14 78 86 11.3264 !w=1.68e-07 !layer=PLY_C !X=8.96 !Y=1.26 !X2=8.96 !Y2=1.345
r15 78 85 11.3264 !w=1.68e-07 !layer=PLY_C !X=8.96 !Y=1.26 !X2=8.96 !Y2=1.175
r16 77 80 0.0269333 !w=1.58e-07 !layer=ME1_C !X=8.96 !Y=1.26 !X2=8.93 !Y2=1.26
r17 77 78 30 !w=9e-08 !layer=PO_CONT_C !X=8.96 !Y=1.26 !X2=8.96 !Y2=1.26
r18 75 83 0.123737 !w=1.46e-07 !layer=ME1_C !X=8.465 !Y=1.305 !X2=8.465 !Y2=1.43
r19 73 74 0.0193696 !w=1.23e-07 !layer=ME1_C !X=8.77 !Y=1.26 !X2=8.785 !Y2=1.26
r20 72 75 0.0962246 !w=9e-08 !layer=ME1_C !X=8.52 !Y=1.26 !X2=8.465 !Y2=1.305
r21 72 73 0.266667 !w=1.4e-07 !layer=ME1_C !X=8.52 !Y=1.26 !X2=8.77 !Y2=1.26
r22 71 79 0.038255 !w=1.44e-07 !layer=ME1_C !X=8.885 !Y=1.26 !X2=8.92 !Y2=1.26
r23 71 74 0.164836 !w=1.06e-07 !layer=ME1_C !X=8.885 !Y=1.26 !X2=8.785 !Y2=1.26
r24 67 86 56 !w=5.8e-08 !layer=PLY_C !X=8.98 !Y=1.625 !X2=8.98 !Y2=1.345
r25 64 85 34 !w=6e-08 !layer=PLY_C !X=8.98 !Y=1.005 !X2=8.98 !Y2=1.175
r26 55 56 0.12963 !w=1.53e-07 !layer=ME1_C !X=3.422 !Y=1.3 !X2=3.422 !Y2=1.44
r27 30 31 35 !w=9e-08 !layer=DIF_CONT_C !X=2.93 !Y=1.005 !X2=2.93 !Y2=1.005
r28 28 30 5.5 !w=2e-07 !layer=NSD_C !X=2.83 !Y=1.005 !X2=2.93 !Y2=1.005
r29 25 26 17.5 !w=9e-08 !layer=DIF_CONT_C !X=2.93 !Y=1.515 !X2=2.93 !Y2=1.515
r30 23 25 2.25 !w=4e-07 !layer=PSD_C !X=2.83 !Y=1.615 !X2=2.93 !Y2=1.615
r31 20 21 17.5 !w=9e-08 !layer=DIF_CONT_C !X=2.235 !Y=1.515 !X2=2.235 !Y2=1.515
r32 18 20 2.25 !w=4e-07 !layer=PSD_C !X=2.135 !Y=1.615 !X2=2.235 !Y2=1.615
r33 15 16 17.5 !w=9e-08 !layer=DIF_CONT_C !X=1.715 !Y=1.515 !X2=1.715 !Y2=1.515
r34 13 15 2.25 !w=4e-07 !layer=PSD_C !X=1.815 !Y=1.615 !X2=1.715 !Y2=1.615
r35 12 16 0.119284 !w=1.44e-07 !layer=ME1_C !X=1.717 !Y=1.63 !X2=1.717 !Y2=1.515
r36 11 12 2 !w=1e-07 !layer=VIA1_C !X=1.715 !Y=1.63 !X2=1.715 !Y2=1.63
r37 10 21 0.122692 !w=1.41e-07 !layer=ME1_C !X=2.24 !Y=1.63 !X2=2.24 !Y2=1.515
r38 9 11 0.78 !w=1e-07 !layer=ME2_C !X=2.235 !Y=1.63 !X2=1.715 !Y2=1.63
r39 9 10 2 !w=1e-07 !layer=VIA1_C !X=2.235 !Y=1.63 !X2=2.235 !Y2=1.63
r40 8 26 0.118251 !w=1.45e-07 !layer=ME1_C !X=2.932 !Y=1.63 !X2=2.932 !Y2=1.515
r41 7 9 1.05 !w=1e-07 !layer=ME2_C !X=2.935 !Y=1.63 !X2=2.235 !Y2=1.63
r42 7 8 2 !w=1e-07 !layer=VIA1_C !X=2.935 !Y=1.63 !X2=2.935 !Y2=1.63
r43 6 56 0.176082 !w=1.53e-07 !layer=ME1_C !X=3.422 !Y=1.63 !X2=3.422 !Y2=1.44
r44 5 104 0.66 !w=1e-07 !layer=ME2_C !X=3.425 !Y=1.63 !X2=3.865 !Y2=1.63
r45 5 7 0.735 !w=1e-07 !layer=ME2_C !X=3.425 !Y=1.63 !X2=2.935 !Y2=1.63
r46 5 6 2 !w=1e-07 !layer=VIA1_C !X=3.425 !Y=1.63 !X2=3.425 !Y2=1.63
r47 3 31 2 !w=1e-07 !layer=VIA1_C !X=2.93 !Y=1.03 !X2=2.93 !Y2=1.03
r48 2 55 0.280059 !w=1.44e-07 !layer=ME1_C !X=3.422 !Y=1.03 !X2=3.422 !Y2=1.3
r49 1 3 0.7425 !w=1e-07 !layer=ME2_C !X=3.425 !Y=1.03 !X2=2.93 !Y2=1.03
r50 1 2 2 !w=1e-07 !layer=VIA1_C !X=3.425 !Y=1.03 !X2=3.425 !Y2=1.03
.ends

.subckt PM_MOD_5_COUNTER_XI0.NET14 7 10 47 52 57 85 88
r0 130 131 2 !w=1e-07 !layer=VIA2_C !X=14.105 !Y=1.43 !X2=14.105 !Y2=1.43
r1 128 130 0.22177 !w=1.44e-07 !layer=ME3_C !X=13.87 !Y=1.43 !X2=14.105 !Y2=1.43
r2 127 128 0.0838093 !w=1e-07 !layer=ME3_C !X=13.82 !Y=1.38 !X2=13.87 !Y2=1.43
r3 126 127 0.273 !w=1.48e-07 !layer=ME3_C !X=13.82 !Y=1.08 !X2=13.82 !Y2=1.38
r4 121 122 2 !w=1e-07 !layer=VIA2_C !X=11.445 !Y=1.03 !X2=11.445 !Y2=1.03
r5 119 126 0.0838093 !w=1e-07 !layer=ME3_C !X=13.77 !Y=1.03 !X2=13.82 !Y2=1.08
r6 119 121 2.63371 !w=1.24e-07 !layer=ME3_C !X=13.77 !Y=1.03 !X2=11.445 !Y2=1.03
r7 103 131 0.3375 !w=1e-07 !layer=ME2_C !X=14.33 !Y=1.43 !X2=14.105 !Y2=1.43
r8 103 104 2 !w=1e-07 !layer=VIA1_C !X=14.33 !Y=1.43 !X2=14.33 !Y2=1.43
r9 100 101 0.0134667 !w=1.58e-07 !layer=ME1_C !X=14.795 !Y=1.26 !X2=14.81
+ !Y2=1.26
r10 99 107 11.3264 !w=1.68e-07 !layer=PLY_C !X=14.825 !Y=1.26 !X2=14.825
+ !Y2=1.345
r11 99 106 11.3264 !w=1.68e-07 !layer=PLY_C !X=14.825 !Y=1.26 !X2=14.825
+ !Y2=1.175
r12 98 101 0.0134667 !w=1.58e-07 !layer=ME1_C !X=14.825 !Y=1.26 !X2=14.81
+ !Y2=1.26
r13 98 99 30 !w=9e-08 !layer=PO_CONT_C !X=14.825 !Y=1.26 !X2=14.825 !Y2=1.26
r14 96 104 0.123737 !w=1.46e-07 !layer=ME1_C !X=14.33 !Y=1.305 !X2=14.33
+ !Y2=1.43
r15 94 95 0.0817832 !w=1.15e-07 !layer=ME1_C !X=14.635 !Y=1.26 !X2=14.692
+ !Y2=1.26
r16 93 96 0.0962246 !w=9e-08 !layer=ME1_C !X=14.385 !Y=1.26 !X2=14.33 !Y2=1.305
r17 93 94 0.266667 !w=1.4e-07 !layer=ME1_C !X=14.385 !Y=1.26 !X2=14.635 !Y2=1.26
r18 92 100 0.0451732 !w=1.51e-07 !layer=ME1_C !X=14.75 !Y=1.26 !X2=14.795
+ !Y2=1.26
r19 92 95 0.083218 !w=1.15e-07 !layer=ME1_C !X=14.75 !Y=1.26 !X2=14.692 !Y2=1.26
r20 88 107 56 !w=5.8e-08 !layer=PLY_C !X=14.845 !Y=1.625 !X2=14.845 !Y2=1.345
r21 85 106 34 !w=6e-08 !layer=PLY_C !X=14.845 !Y=1.005 !X2=14.845 !Y2=1.175
r22 76 77 0.139921 !w=1.24e-07 !layer=ME1_C !X=9.845 !Y=1.075 !X2=9.845
+ !Y2=1.185
r23 59 60 35 !w=9e-08 !layer=DIF_CONT_C !X=9.37 !Y=1.005 !X2=9.37 !Y2=1.005
r24 57 59 5.5 !w=2e-07 !layer=NSD_C !X=9.27 !Y=1.005 !X2=9.37 !Y2=1.005
r25 52 54 4.5 !w=2e-07 !layer=PSD_C !X=9.27 !Y=1.625 !X2=9.37 !Y2=1.625
r26 49 50 35 !w=9e-08 !layer=DIF_CONT_C !X=8.85 !Y=1.625 !X2=8.85 !Y2=1.625
r27 47 49 4.5 !w=2e-07 !layer=PSD_C !X=8.95 !Y=1.625 !X2=8.85 !Y2=1.625
r28 45 50 2 !w=1e-07 !layer=VIA1_C !X=8.85 !Y=1.63 !X2=8.85 !Y2=1.63
r29 44 54 35 !w=9e-08 !layer=DIF_CONT_C !X=9.37 !Y=1.625 !X2=9.37 !Y2=1.625
r30 43 45 0.78 !w=1e-07 !layer=ME2_C !X=9.37 !Y=1.63 !X2=8.85 !Y2=1.63
r31 43 44 2 !w=1e-07 !layer=VIA1_C !X=9.37 !Y=1.63 !X2=9.37 !Y2=1.63
r32 41 60 2 !w=1e-07 !layer=VIA1_C !X=9.37 !Y=1.03 !X2=9.37 !Y2=1.03
r33 40 76 0.0713928 !w=1.08e-07 !layer=ME1_C !X=9.845 !Y=1.03 !X2=9.845
+ !Y2=1.075
r34 39 122 2.4 !w=1e-07 !layer=ME2_C !X=9.845 !Y=1.03 !X2=11.445 !Y2=1.03
r35 39 41 0.7125 !w=1e-07 !layer=ME2_C !X=9.845 !Y=1.03 !X2=9.37 !Y2=1.03
r36 39 40 2 !w=1e-07 !layer=VIA1_C !X=9.845 !Y=1.03 !X2=9.845 !Y2=1.03
r37 36 37 0.0179556 !w=1.58e-07 !layer=ME1_C !X=10.175 !Y=1.26 !X2=10.195
+ !Y2=1.26
r38 35 36 0.038255 !w=1.44e-07 !layer=ME1_C !X=10.14 !Y=1.26 !X2=10.175 !Y2=1.26
r39 34 64 11.3264 !w=1.68e-07 !layer=PLY_C !X=10.215 !Y=1.26 !X2=10.215
+ !Y2=1.345
r40 34 63 11.3264 !w=1.68e-07 !layer=PLY_C !X=10.215 !Y=1.26 !X2=10.215
+ !Y2=1.175
r41 33 37 0.0179556 !w=1.58e-07 !layer=ME1_C !X=10.215 !Y=1.26 !X2=10.195
+ !Y2=1.26
r42 33 34 30 !w=9e-08 !layer=PO_CONT_C !X=10.215 !Y=1.26 !X2=10.215 !Y2=1.26
r43 30 77 0.00691971 !w=1.17e-07 !layer=ME1_C !X=9.845 !Y=1.19 !X2=9.845
+ !Y2=1.185
r44 30 31 0.0719857 !w=1e-07 !layer=ME1_C !X=9.845 !Y=1.19 !X2=9.845 !Y2=1.24
r45 29 35 0.151202 !w=1.12e-07 !layer=ME1_C !X=10.04 !Y=1.24 !X2=10.14 !Y2=1.24
r46 28 29 0.0124641 !w=1.26e-07 !layer=ME1_C !X=10.03 !Y=1.24 !X2=10.04 !Y2=1.24
r47 27 31 0.0187078 !w=1e-07 !layer=ME1_C !X=9.895 !Y=1.24 !X2=9.845 !Y2=1.24
r48 27 28 0.1383 !w=1.44e-07 !layer=ME1_C !X=9.895 !Y=1.24 !X2=10.03 !Y2=1.24
r49 24 25 0.107567 !w=1.44e-07 !layer=ME1_C !X=9.845 !Y=1.335 !X2=9.845 !Y2=1.44
r50 23 25 0.168657 !w=1.29e-07 !layer=ME1_C !X=9.845 !Y=1.58 !X2=9.845 !Y2=1.44
r51 22 31 0.0719857 !w=1e-07 !layer=ME1_C !X=9.845 !Y=1.29 !X2=9.845 !Y2=1.24
r52 22 24 0.0493122 !w=1.37e-07 !layer=ME1_C !X=9.845 !Y=1.29 !X2=9.845
+ !Y2=1.335
r53 20 21 0.0495735 !w=1.41e-07 !layer=ME1_C !X=9.7 !Y=1.63 !X2=9.747 !Y2=1.63
r54 19 44 0.0257836 !w=1e-07 !layer=ME1_C !X=9.425 !Y=1.63 !X2=9.367 !Y2=1.63
r55 19 20 0.29968 !w=1.37e-07 !layer=ME1_C !X=9.425 !Y=1.63 !X2=9.7 !Y2=1.63
r56 18 23 0.0949839 !w=1e-07 !layer=ME1_C !X=9.795 !Y=1.63 !X2=9.845 !Y2=1.58
r57 18 21 0.0506282 !w=1.41e-07 !layer=ME1_C !X=9.795 !Y=1.63 !X2=9.747 !Y2=1.63
r58 10 64 56 !w=5.8e-08 !layer=PLY_C !X=10.235 !Y=1.625 !X2=10.235 !Y2=1.345
r59 7 63 34 !w=6e-08 !layer=PLY_C !X=10.235 !Y=1.005 !X2=10.235 !Y2=1.175
.ends

.subckt PM_MOD_5_COUNTER_XI0.NET15 7 10 53 58 63 98 101
r0 148 149 2 !w=1e-07 !layer=VIA2_C !X=16.46 !Y=1.23 !X2=16.46 !Y2=1.23
r1 146 148 0.240644 !w=1.44e-07 !layer=ME3_C !X=16.205 !Y=1.23 !X2=16.46
+ !Y2=1.23
r2 145 146 0.0838093 !w=1e-07 !layer=ME3_C !X=16.155 !Y=1.18 !X2=16.205 !Y2=1.23
r3 144 145 0.273 !w=1.48e-07 !layer=ME3_C !X=16.155 !Y=0.88 !X2=16.155 !Y2=1.18
r4 142 143 1.26532 !w=1.24e-07 !layer=ME3_C !X=13.87 !Y=0.83 !X2=14.987 !Y2=0.83
r5 139 142 3.645 !w=1e-07 !layer=ME3_C !X=11.44 !Y=0.83 !X2=13.87 !Y2=0.83
r6 139 140 2 !w=1e-07 !layer=VIA2_C !X=11.44 !Y=0.83 !X2=11.44 !Y2=0.83
r7 137 144 0.0838093 !w=1e-07 !layer=ME3_C !X=16.105 !Y=0.83 !X2=16.155 !Y2=0.88
r8 137 143 1.26645 !w=1.24e-07 !layer=ME3_C !X=16.105 !Y=0.83 !X2=14.987
+ !Y2=0.83
r9 116 124 0.0250039 !w=1.49e-07 !layer=ME1_C !X=17.89 !Y=1.23 !X2=17.89
+ !Y2=1.255
r10 115 149 2.1375 !w=1e-07 !layer=ME2_C !X=17.885 !Y=1.23 !X2=16.46 !Y2=1.23
r11 115 116 2 !w=1e-07 !layer=VIA1_C !X=17.885 !Y=1.23 !X2=17.885 !Y2=1.23
r12 113 114 0.0396812 !w=1.5e-07 !layer=ME1_C !X=17.505 !Y=1.255 !X2=17.545
+ !Y2=1.255
r13 111 119 11.3264 !w=1.68e-07 !layer=PLY_C !X=17.485 !Y=1.255 !X2=17.485
+ !Y2=1.34
r14 111 118 11.3264 !w=1.68e-07 !layer=PLY_C !X=17.485 !Y=1.255 !X2=17.485
+ !Y2=1.17
r15 110 113 0.0179556 !w=1.58e-07 !layer=ME1_C !X=17.485 !Y=1.255 !X2=17.505
+ !Y2=1.255
r16 110 111 30 !w=9e-08 !layer=PO_CONT_C !X=17.485 !Y=1.255 !X2=17.485 !Y2=1.255
r17 107 108 0.0457375 !w=1.22e-07 !layer=ME1_C !X=17.635 !Y=1.255 !X2=17.67
+ !Y2=1.255
r18 106 114 0.0151873 !w=1.5e-07 !layer=ME1_C !X=17.56 !Y=1.255 !X2=17.545
+ !Y2=1.255
r19 106 107 0.109045 !w=1.14e-07 !layer=ME1_C !X=17.56 !Y=1.255 !X2=17.635
+ !Y2=1.255
r20 105 124 0.051916 !w=9e-08 !layer=ME1_C !X=17.815 !Y=1.255 !X2=17.89
+ !Y2=1.255
r21 105 108 0.154667 !w=1.4e-07 !layer=ME1_C !X=17.815 !Y=1.255 !X2=17.67
+ !Y2=1.255
r22 101 119 57 !w=5.8e-08 !layer=PLY_C !X=17.46 !Y=1.625 !X2=17.46 !Y2=1.34
r23 98 118 33 !w=6e-08 !layer=PLY_C !X=17.46 !Y=1.005 !X2=17.46 !Y2=1.17
r24 89 90 0.0983894 !w=1.43e-07 !layer=ME1_C !X=11.08 !Y=1.44 !X2=11.08
+ !Y2=1.535
r25 88 89 0.133178 !w=1.44e-07 !layer=ME1_C !X=11.08 !Y=1.31 !X2=11.08 !Y2=1.44
r26 87 88 0.165361 !w=1.24e-07 !layer=ME1_C !X=11.08 !Y=1.18 !X2=11.08 !Y2=1.31
r27 84 85 0.0278881 !w=1.43e-07 !layer=ME1_C !X=11.08 !Y=0.925 !X2=11.08
+ !Y2=0.952
r28 73 74 0.00193081 !w=1.57e-07 !layer=ME1_C !X=9.62 !Y=1.18 !X2=9.62 !Y2=1.182
r29 72 73 0.0958164 !w=1.54e-07 !layer=ME1_C !X=9.62 !Y=1.08 !X2=9.62 !Y2=1.18
r30 71 72 0.136916 !w=1.48e-07 !layer=ME1_C !X=9.62 !Y=0.95 !X2=9.62 !Y2=1.08
r31 60 61 35 !w=9e-08 !layer=DIF_CONT_C !X=10.625 !Y=1.625 !X2=10.625 !Y2=1.625
r32 58 60 4.5 !w=2e-07 !layer=PSD_C !X=10.525 !Y=1.625 !X2=10.625 !Y2=1.625
r33 55 56 35 !w=9e-08 !layer=DIF_CONT_C !X=10.105 !Y=1.625 !X2=10.105 !Y2=1.625
r34 53 55 4.5 !w=2e-07 !layer=PSD_C !X=10.205 !Y=1.625 !X2=10.105 !Y2=1.625
r35 51 56 2 !w=1e-07 !layer=VIA1_C !X=10.125 !Y=1.63 !X2=10.125 !Y2=1.63
r36 49 51 0.75 !w=1e-07 !layer=ME2_C !X=10.625 !Y=1.63 !X2=10.125 !Y2=1.63
r37 49 61 2 !w=1e-07 !layer=VIA1_C !X=10.625 !Y=1.63 !X2=10.625 !Y2=1.63
r38 48 90 0.0983894 !w=1.43e-07 !layer=ME1_C !X=11.08 !Y=1.63 !X2=11.08
+ !Y2=1.535
r39 47 49 0.6825 !w=1e-07 !layer=ME2_C !X=11.08 !Y=1.63 !X2=10.625 !Y2=1.63
r40 47 48 2 !w=1e-07 !layer=VIA1_C !X=11.08 !Y=1.63 !X2=11.08 !Y2=1.63
r41 46 71 0.115354 !w=1.54e-07 !layer=ME1_C !X=9.62 !Y=0.83 !X2=9.62 !Y2=0.95
r42 45 46 2 !w=1e-07 !layer=VIA1_C !X=9.62 !Y=0.83 !X2=9.62 !Y2=0.83
r43 44 84 0.0973222 !w=1.44e-07 !layer=ME1_C !X=11.08 !Y=0.83 !X2=11.08
+ !Y2=0.925
r44 43 140 0.54 !w=1e-07 !layer=ME2_C !X=11.08 !Y=0.83 !X2=11.44 !Y2=0.83
r45 43 45 2.19 !w=1e-07 !layer=ME2_C !X=11.08 !Y=0.83 !X2=9.62 !Y2=0.83
r46 43 44 2 !w=1e-07 !layer=VIA1_C !X=11.08 !Y=0.83 !X2=11.08 !Y2=0.83
r47 41 87 0.102444 !w=1.44e-07 !layer=ME1_C !X=11.08 !Y=1.08 !X2=11.08 !Y2=1.18
r48 41 42 0.0719857 !w=1e-07 !layer=ME1_C !X=11.08 !Y=1.08 !X2=11.08 !Y2=1.03
r49 40 85 0.028921 !w=1.43e-07 !layer=ME1_C !X=11.08 !Y=0.98 !X2=11.08 !Y2=0.952
r50 40 42 0.0719857 !w=1e-07 !layer=ME1_C !X=11.08 !Y=0.98 !X2=11.08 !Y2=1.03
r51 34 63 5.5 !w=2e-07 !layer=NSD_C !X=10.625 !Y=1.005 !X2=10.525 !Y2=1.005
r52 33 38 0.0231481 !w=1.53e-07 !layer=ME1_C !X=10.617 !Y=1.005 !X2=10.617
+ !Y2=1.03
r53 33 34 35 !w=9e-08 !layer=DIF_CONT_C !X=10.625 !Y=1.005 !X2=10.625 !Y2=1.005
r54 31 74 0.00289621 !w=1.57e-07 !layer=ME1_C !X=9.62 !Y=1.185 !X2=9.62
+ !Y2=1.182
r55 29 30 0.0248008 !w=1.5e-07 !layer=ME1_C !X=9.285 !Y=1.255 !X2=9.31 !Y2=1.255
r56 28 30 0.0329416 !w=1.43e-07 !layer=ME1_C !X=9.34 !Y=1.255 !X2=9.31 !Y2=1.255
r57 26 68 11.3264 !w=1.68e-07 !layer=PLY_C !X=9.265 !Y=1.255 !X2=9.265 !Y2=1.34
r58 26 67 11.3264 !w=1.68e-07 !layer=PLY_C !X=9.265 !Y=1.255 !X2=9.265 !Y2=1.17
r59 25 29 0.0179556 !w=1.58e-07 !layer=ME1_C !X=9.265 !Y=1.255 !X2=9.285
+ !Y2=1.255
r60 25 26 30 !w=9e-08 !layer=PO_CONT_C !X=9.265 !Y=1.255 !X2=9.265 !Y2=1.255
r61 22 23 0.0481489 !w=1.44e-07 !layer=ME1_C !X=10.935 !Y=1.03 !X2=10.982
+ !Y2=1.03
r62 21 22 0.208851 !w=1.24e-07 !layer=ME1_C !X=10.77 !Y=1.03 !X2=10.935 !Y2=1.03
r63 20 21 0.0367824 !w=1.28e-07 !layer=ME1_C !X=10.74 !Y=1.03 !X2=10.77 !Y2=1.03
r64 19 38 0.0347872 !w=1e-07 !layer=ME1_C !X=10.685 !Y=1.03 !X2=10.617 !Y2=1.03
r65 19 20 0.0698363 !w=1.25e-07 !layer=ME1_C !X=10.685 !Y=1.03 !X2=10.74
+ !Y2=1.03
r66 18 42 0.0187078 !w=1e-07 !layer=ME1_C !X=11.03 !Y=1.03 !X2=11.08 !Y2=1.03
r67 18 23 0.0491733 !w=1.44e-07 !layer=ME1_C !X=11.03 !Y=1.03 !X2=10.982
+ !Y2=1.03
r68 16 17 0.0339513 !w=1.18e-07 !layer=ME1_C !X=9.425 !Y=1.232 !X2=9.45
+ !Y2=1.232
r69 16 28 0.134322 !w=1.08e-07 !layer=ME1_C !X=9.425 !Y=1.232 !X2=9.34 !Y2=1.232
r70 14 31 0.103239 !w=9.5e-08 !layer=ME1_C !X=9.54 !Y=1.232 !X2=9.62 !Y2=1.185
r71 14 17 0.0973825 !w=1.38e-07 !layer=ME1_C !X=9.54 !Y=1.232 !X2=9.45 !Y2=1.232
r72 10 68 57 !w=5.8e-08 !layer=PLY_C !X=9.24 !Y=1.625 !X2=9.24 !Y2=1.34
r73 7 67 33 !w=6e-08 !layer=PLY_C !X=9.24 !Y=1.005 !X2=9.24 !Y2=1.17
.ends

.subckt PM_MOD_5_COUNTER_XI0.NET20 7 10 40 41 45
r0 85 86 0.195 !w=1e-07 !layer=ME3_C !X=18.58 !Y=1.23 !X2=18.71 !Y2=1.23
r1 83 86 0.195 !w=1e-07 !layer=ME3_C !X=18.84 !Y=1.23 !X2=18.71 !Y2=1.23
r2 83 84 2 !w=1e-07 !layer=VIA2_C !X=18.84 !Y=1.23 !X2=18.84 !Y2=1.23
r3 81 85 0.113278 !w=1.24e-07 !layer=ME3_C !X=18.48 !Y=1.23 !X2=18.58 !Y2=1.23
r4 80 81 0.0838093 !w=1e-07 !layer=ME3_C !X=18.43 !Y=1.18 !X2=18.48 !Y2=1.23
r5 79 80 0.091 !w=1.48e-07 !layer=ME3_C !X=18.43 !Y=1.08 !X2=18.43 !Y2=1.18
r6 76 77 2 !w=1e-07 !layer=VIA2_C !X=18.27 !Y=1.03 !X2=18.27 !Y2=1.03
r7 74 79 0.0838093 !w=1e-07 !layer=ME3_C !X=18.38 !Y=1.03 !X2=18.43 !Y2=1.08
r8 74 76 0.103807 !w=1.44e-07 !layer=ME3_C !X=18.38 !Y=1.03 !X2=18.27 !Y2=1.03
r9 62 63 0.191723 !w=1.23e-07 !layer=ME1_C !X=18.105 !Y=1.15 !X2=18.105 !Y2=1.3
r10 47 48 35 !w=9e-08 !layer=DIF_CONT_C !X=17.59 !Y=1.005 !X2=17.59 !Y2=1.005
r11 45 47 5.5 !w=2e-07 !layer=NSD_C !X=17.49 !Y=1.005 !X2=17.59 !Y2=1.005
r12 43 44 35 !w=9e-08 !layer=DIF_CONT_C !X=17.33 !Y=1.625 !X2=17.33 !Y2=1.625
r13 41 43 4.5 !w=2e-07 !layer=PSD_C !X=17.23 !Y=1.625 !X2=17.33 !Y2=1.625
r14 40 43 4.5 !w=2e-07 !layer=PSD_C !X=17.43 !Y=1.625 !X2=17.33 !Y2=1.625
r15 38 44 2 !w=1e-07 !layer=VIA1_C !X=17.33 !Y=1.63 !X2=17.33 !Y2=1.63
r16 37 63 0.338067 !w=1.44e-07 !layer=ME1_C !X=18.105 !Y=1.63 !X2=18.105 !Y2=1.3
r17 36 38 1.1625 !w=1e-07 !layer=ME2_C !X=18.105 !Y=1.63 !X2=17.33 !Y2=1.63
r18 36 37 2 !w=1e-07 !layer=VIA1_C !X=18.105 !Y=1.63 !X2=18.105 !Y2=1.63
r19 34 48 2 !w=1e-07 !layer=VIA1_C !X=17.585 !Y=1.03 !X2=17.585 !Y2=1.03
r20 33 62 0.122933 !w=1.44e-07 !layer=ME1_C !X=18.105 !Y=1.03 !X2=18.105
+ !Y2=1.15
r21 32 77 0.2475 !w=1e-07 !layer=ME2_C !X=18.105 !Y=1.03 !X2=18.27 !Y2=1.03
r22 32 34 0.78 !w=1e-07 !layer=ME2_C !X=18.105 !Y=1.03 !X2=17.585 !Y2=1.03
r23 32 33 2 !w=1e-07 !layer=VIA1_C !X=18.105 !Y=1.03 !X2=18.105 !Y2=1.03
r24 25 30 0.099885 !w=1.4e-07 !layer=ME1_C !X=21.485 !Y=1.245 !X2=21.405
+ !Y2=1.245
r25 24 84 3.9675 !w=1e-07 !layer=ME2_C !X=21.485 !Y=1.23 !X2=18.84 !Y2=1.23
r26 24 25 2 !w=1e-07 !layer=VIA1_C !X=21.485 !Y=1.23 !X2=21.485 !Y2=1.23
r27 22 23 0.00496015 !w=1.5e-07 !layer=ME1_C !X=21.185 !Y=1.255 !X2=21.19
+ !Y2=1.255
r28 20 28 11.3264 !w=1.68e-07 !layer=PLY_C !X=21.155 !Y=1.255 !X2=21.155
+ !Y2=1.34
r29 20 27 11.3264 !w=1.68e-07 !layer=PLY_C !X=21.155 !Y=1.255 !X2=21.155
+ !Y2=1.17
r30 19 22 0.0269333 !w=1.58e-07 !layer=ME1_C !X=21.155 !Y=1.255 !X2=21.185
+ !Y2=1.255
r31 19 20 30 !w=9e-08 !layer=PO_CONT_C !X=21.155 !Y=1.255 !X2=21.155 !Y2=1.255
r32 17 30 0.0522714 !w=1.22e-07 !layer=ME1_C !X=21.365 !Y=1.255 !X2=21.405
+ !Y2=1.255
r33 16 17 0.0522714 !w=1.22e-07 !layer=ME1_C !X=21.325 !Y=1.255 !X2=21.365
+ !Y2=1.255
r34 15 23 0.0439221 !w=1.43e-07 !layer=ME1_C !X=21.23 !Y=1.255 !X2=21.19
+ !Y2=1.255
r35 15 16 0.157769 !w=1.05e-07 !layer=ME1_C !X=21.23 !Y=1.255 !X2=21.325
+ !Y2=1.255
r36 10 28 57 !w=5.8e-08 !layer=PLY_C !X=21.13 !Y=1.625 !X2=21.13 !Y2=1.34
r37 7 27 33 !w=6e-08 !layer=PLY_C !X=21.13 !Y=1.005 !X2=21.13 !Y2=1.17
.ends

.subckt PM_MOD_5_COUNTER_XI0.NET21 7 10 41 42 46
r0 88 89 2 !w=1e-07 !layer=VIA2_C !X=18.84 !Y=1.43 !X2=18.84 !Y2=1.43
r1 86 88 0.331935 !w=1.2e-07 !layer=ME3_C !X=18.56 !Y=1.43 !X2=18.84 !Y2=1.43
r2 84 86 0.0838093 !w=1e-07 !layer=ME3_C !X=18.51 !Y=1.48 !X2=18.56 !Y2=1.43
r3 84 85 0.091 !w=1.48e-07 !layer=ME3_C !X=18.51 !Y=1.48 !X2=18.51 !Y2=1.58
r4 82 83 0.0474194 !w=1.2e-07 !layer=ME3_C !X=18.38 !Y=1.63 !X2=18.42 !Y2=1.63
r5 81 82 2.04467 !w=1.24e-07 !layer=ME3_C !X=16.575 !Y=1.63 !X2=18.38 !Y2=1.63
r6 80 81 0.557177 !w=1.2e-07 !layer=ME3_C !X=16.105 !Y=1.63 !X2=16.575 !Y2=1.63
r7 77 80 0.220892 !w=1.24e-07 !layer=ME3_C !X=15.91 !Y=1.63 !X2=16.105 !Y2=1.63
r8 77 78 2 !w=1e-07 !layer=VIA2_C !X=15.91 !Y=1.63 !X2=15.91 !Y2=1.63
r9 75 85 0.0838093 !w=1e-07 !layer=ME3_C !X=18.46 !Y=1.63 !X2=18.51 !Y2=1.58
r10 75 83 0.0474194 !w=1.2e-07 !layer=ME3_C !X=18.46 !Y=1.63 !X2=18.42 !Y2=1.63
r11 63 64 0.191723 !w=1.23e-07 !layer=ME1_C !X=15.75 !Y=1.15 !X2=15.75 !Y2=1.3
r12 48 49 35 !w=9e-08 !layer=DIF_CONT_C !X=15.235 !Y=1.005 !X2=15.235 !Y2=1.005
r13 46 48 5.5 !w=2e-07 !layer=NSD_C !X=15.135 !Y=1.005 !X2=15.235 !Y2=1.005
r14 44 45 35 !w=9e-08 !layer=DIF_CONT_C !X=14.975 !Y=1.625 !X2=14.975 !Y2=1.625
r15 42 44 4.5 !w=2e-07 !layer=PSD_C !X=14.875 !Y=1.625 !X2=14.975 !Y2=1.625
r16 41 44 4.5 !w=2e-07 !layer=PSD_C !X=15.075 !Y=1.625 !X2=14.975 !Y2=1.625
r17 39 45 2 !w=1e-07 !layer=VIA1_C !X=14.975 !Y=1.63 !X2=14.975 !Y2=1.63
r18 38 64 0.338067 !w=1.44e-07 !layer=ME1_C !X=15.75 !Y=1.63 !X2=15.75 !Y2=1.3
r19 37 78 0.24 !w=1e-07 !layer=ME2_C !X=15.75 !Y=1.63 !X2=15.91 !Y2=1.63