// File: MS_JK_FF.pex.netlist.MS_JK_FF.pxi
// Created: Wed Sep 15 11:07:20 2021
// 
simulator lang=spectre
x_PM_MS_JK_FF\%XI0\/NET21 ( N_XI0\/NET21_c_1_n N_XI0\/NET21_XI0\/MNM1_d \
 N_XI0\/NET21_XI0\/MNM0_s )  PM_MS_JK_FF\%XI0\/NET21
x_PM_MS_JK_FF\%XI0\/NET20 ( N_XI0\/NET20_c_20_n N_XI0\/NET20_c_30_n \
 N_XI0\/NET20_c_17_n N_XI0\/NET20_c_22_n N_XI0\/NET20_c_27_n \
 N_XI0\/NET20_XI0\/MNM1_s N_XI0\/NET20_XI0\/MNM2_d )  PM_MS_JK_FF\%XI0\/NET20
x_PM_MS_JK_FF\%XI1\/NET20 ( N_XI1\/NET20_c_47_n N_XI1\/NET20_XI1\/MNM1_s \
 N_XI1\/NET20_XI1\/MNM2_d )  PM_MS_JK_FF\%XI1\/NET20
x_PM_MS_JK_FF\%XI1\/NET21 ( N_XI1\/NET21_c_64_n N_XI1\/NET21_c_68_n \
 N_XI1\/NET21_c_61_n N_XI1\/NET21_c_70_n N_XI1\/NET21_c_71_n \
 N_XI1\/NET21_XI1\/MNM1_d N_XI1\/NET21_XI1\/MNM0_s )  PM_MS_JK_FF\%XI1\/NET21
x_PM_MS_JK_FF\%XI10\/XI0\/NET17 ( N_XI10\/XI0\/NET17_XI10\/XI0\/MNM1_s \
 N_XI10\/XI0\/NET17_XI10\/XI0\/MNM0_d )  PM_MS_JK_FF\%XI10\/XI0\/NET17
x_PM_MS_JK_FF\%XI10\/XI1\/NET17 ( N_XI10\/XI1\/NET17_XI10\/XI1\/MNM1_s \
 N_XI10\/XI1\/NET17_XI10\/XI1\/MNM0_d )  PM_MS_JK_FF\%XI10\/XI1\/NET17
x_PM_MS_JK_FF\%XI11\/XI0\/NET17 ( N_XI11\/XI0\/NET17_XI11\/XI0\/MNM1_s \
 N_XI11\/XI0\/NET17_XI11\/XI0\/MNM0_d )  PM_MS_JK_FF\%XI11\/XI0\/NET17
x_PM_MS_JK_FF\%XI11\/XI1\/NET17 ( N_XI11\/XI1\/NET17_XI11\/XI1\/MNM1_s \
 N_XI11\/XI1\/NET17_XI11\/XI1\/MNM0_d )  PM_MS_JK_FF\%XI11\/XI1\/NET17
x_PM_MS_JK_FF\%XI4\/NET17 ( N_XI4\/NET17_XI4\/MNM1_s N_XI4\/NET17_XI4\/MNM0_d ) \
 PM_MS_JK_FF\%XI4\/NET17
x_PM_MS_JK_FF\%XI5\/NET17 ( N_XI5\/NET17_XI5\/MNM1_s N_XI5\/NET17_XI5\/MNM0_d ) \
 PM_MS_JK_FF\%XI5\/NET17
x_PM_MS_JK_FF\%CLK ( N_CLK_c_106_p N_CLK_XI0\/MNM2_g N_CLK_XI0\/MPM2_g \
 N_CLK_c_96_p N_CLK_c_97_p N_CLK_c_98_p N_CLK_c_99_p N_CLK_c_100_p \
 N_CLK_c_204_p N_CLK_c_126_p N_CLK_c_107_p N_CLK_c_101_p N_CLK_c_93_p \
 N_CLK_c_95_p N_CLK_c_104_p N_CLK_c_105_p N_CLK_c_208_p N_CLK_c_151_p \
 N_CLK_XI1\/MNM0_g N_CLK_XI1\/MPM0_g N_CLK_c_113_p N_CLK_c_147_p N_CLK_c_114_p \
 N_CLK_c_115_p N_CLK_c_172_p N_CLK_c_154_p N_CLK_c_133_p N_CLK_c_174_p \
 N_CLK_c_275_p N_CLK_c_116_p N_CLK_c_117_p N_CLK_c_176_p N_CLK_c_118_p \
 N_CLK_c_158_p N_CLK_c_244_p N_CLK_XI8\/MNM0_g N_CLK_XI8\/MPM0_g N_CLK_c_350_p \
 N_CLK_c_135_p N_CLK_c_136_p N_CLK_c_137_p N_CLK_c_138_p N_CLK_c_139_p \
 N_CLK_c_119_p N_CLK_c_143_p N_CLK_c_142_p N_CLK_c_311_p N_CLK_c_307_p \
 N_CLK_c_145_p N_CLK_c_213_p N_CLK_c_219_p N_CLK_c_164_p N_CLK_c_245_p \
 N_CLK_c_220_p N_CLK_c_263_p N_CLK_c_250_p N_CLK_c_166_p N_CLK_c_265_p CLK \
 N_CLK_c_122_p N_CLK_c_258_p N_CLK_c_167_p N_CLK_c_358_p N_CLK_c_111_p \
 N_CLK_c_121_p N_CLK_c_292_p N_CLK_c_120_p N_CLK_c_140_p N_CLK_c_169_p )  \
 PM_MS_JK_FF\%CLK
x_PM_MS_JK_FF\%J ( N_J_XI0\/MNM1_g N_J_XI0\/MPM1_g N_J_c_434_n N_J_c_462_p \
 N_J_c_498_p N_J_c_435_n N_J_c_458_p N_J_c_465_p N_J_c_437_n N_J_c_447_n \
 N_J_c_451_n J N_J_c_456_p N_J_c_455_p N_J_c_505_p )  PM_MS_JK_FF\%J
x_PM_MS_JK_FF\%K ( N_K_XI1\/MNM2_g N_K_XI1\/MPM1_g N_K_c_574_p N_K_c_559_n \
 N_K_c_585_p N_K_c_586_p N_K_c_587_p N_K_c_575_p N_K_c_576_p N_K_c_626_p \
 N_K_c_539_n N_K_c_569_p N_K_c_547_n N_K_c_548_n K N_K_c_549_n N_K_c_551_n \
 N_K_c_552_n N_K_c_602_p N_K_c_558_n N_K_c_603_p N_K_c_645_p N_K_c_571_p )  \
 PM_MS_JK_FF\%K
x_PM_MS_JK_FF\%NET22 ( N_NET22_c_685_n N_NET22_c_694_n N_NET22_c_696_n \
 N_NET22_c_896_p N_NET22_XI1\/MPM1_d N_NET22_c_743_n N_NET22_XI1\/MPM2_d \
 N_NET22_c_750_n N_NET22_c_751_n N_NET22_XI1\/MPM0_d N_NET22_c_699_n \
 N_NET22_XI1\/MNM0_d N_NET22_c_704_n N_NET22_c_713_n N_NET22_XI10\/XI1\/MNM1_g \
 N_NET22_XI10\/XI1\/MPM1_g N_NET22_c_781_p N_NET22_c_782_p N_NET22_c_783_p \
 N_NET22_c_784_p N_NET22_c_785_p N_NET22_c_851_p N_NET22_c_718_n \
 N_NET22_c_787_p N_NET22_c_825_p N_NET22_c_721_n N_NET22_c_723_n \
 N_NET22_c_732_n )  PM_MS_JK_FF\%NET22
x_PM_MS_JK_FF\%NET23 ( N_NET23_c_944_n N_NET23_c_952_n N_NET23_c_1015_n \
 N_NET23_c_1154_p N_NET23_XI0\/MPM0_d N_NET23_c_1000_n N_NET23_XI0\/MPM1_d \
 N_NET23_c_1144_p N_NET23_c_1001_n N_NET23_XI0\/MPM2_d N_NET23_c_956_n \
 N_NET23_XI0\/MNM2_s N_NET23_c_1016_n N_NET23_c_960_n N_NET23_c_969_n \
 N_NET23_XI10\/XI0\/MNM0_g N_NET23_XI10\/XI0\/MPM0_g N_NET23_c_1032_n \
 N_NET23_c_973_n N_NET23_c_975_n N_NET23_c_1039_n N_NET23_c_1040_n \
 N_NET23_c_1042_n N_NET23_c_1044_n N_NET23_c_1045_n N_NET23_c_977_n \
 N_NET23_c_980_n N_NET23_c_981_n N_NET23_c_982_n N_NET23_c_983_n \
 N_NET23_c_1021_n N_NET23_c_984_n N_NET23_c_1129_p N_NET23_c_985_n \
 N_NET23_c_986_n )  PM_MS_JK_FF\%NET23
x_PM_MS_JK_FF\%NET14 ( N_NET14_XI10\/XI1\/MNM0_g N_NET14_XI10\/XI1\/MPM0_g \
 N_NET14_c_1215_n N_NET14_c_1216_n N_NET14_c_1261_n N_NET14_c_1262_n \
 N_NET14_c_1263_n N_NET14_c_1231_n N_NET14_c_1232_n N_NET14_c_1233_n \
 N_NET14_c_1234_n N_NET14_c_1237_n N_NET14_c_1241_n N_NET14_c_1242_n \
 N_NET14_c_1243_n N_NET14_c_1339_p N_NET14_c_1218_n N_NET14_c_1293_p \
 N_NET14_XI10\/XI0\/MPM0_d N_NET14_c_1220_n N_NET14_XI10\/XI0\/MPM1_d \
 N_NET14_XI10\/XI0\/MNM1_d N_NET14_c_1246_n N_NET14_c_1247_n N_NET14_c_1249_n \
 N_NET14_XI4\/MNM0_g N_NET14_XI4\/MPM0_g N_NET14_c_1470_p N_NET14_c_1224_n \
 N_NET14_c_1356_p N_NET14_c_1357_p N_NET14_c_1450_p N_NET14_c_1358_p \
 N_NET14_c_1359_p N_NET14_c_1360_p N_NET14_c_1365_p N_NET14_c_1352_p \
 N_NET14_c_1362_p N_NET14_c_1250_n N_NET14_c_1225_n N_NET14_c_1382_p \
 N_NET14_c_1226_n )  PM_MS_JK_FF\%NET14
x_PM_MS_JK_FF\%NET15 ( N_NET15_XI10\/XI0\/MNM1_g N_NET15_XI10\/XI0\/MPM1_g \
 N_NET15_c_1511_n N_NET15_c_1512_n N_NET15_c_1513_n N_NET15_c_1582_n \
 N_NET15_c_1514_n N_NET15_c_1515_n N_NET15_c_1517_n N_NET15_c_1518_n \
 N_NET15_c_1519_n N_NET15_c_1520_n N_NET15_c_1521_n N_NET15_c_1493_n \
 N_NET15_c_1523_n N_NET15_c_1602_n N_NET15_c_1603_n N_NET15_c_1529_n \
 N_NET15_c_1604_n N_NET15_c_1494_n N_NET15_c_1496_n N_NET15_XI10\/XI1\/MPM0_d \
 N_NET15_c_1499_n N_NET15_XI10\/XI1\/MPM1_d N_NET15_c_1500_n \
 N_NET15_XI10\/XI1\/MNM1_d N_NET15_c_1565_n N_NET15_c_1619_n N_NET15_c_1537_n \
 N_NET15_c_1740_p N_NET15_c_1502_n N_NET15_c_1504_n N_NET15_c_1506_n \
 N_NET15_c_1508_n N_NET15_XI5\/MNM1_g N_NET15_XI5\/MPM1_g N_NET15_c_1641_p \
 N_NET15_c_1645_p N_NET15_c_1697_p N_NET15_c_1642_p N_NET15_c_1655_p \
 N_NET15_c_1647_p N_NET15_c_1635_p N_NET15_c_1652_p N_NET15_c_1637_p \
 N_NET15_c_1509_n N_NET15_c_1630_n N_NET15_c_1632_n N_NET15_c_1671_p \
 N_NET15_c_1634_n )  PM_MS_JK_FF\%NET15
x_PM_MS_JK_FF\%NET20 ( N_NET20_XI11\/XI1\/MNM1_g N_NET20_XI11\/XI1\/MPM1_g \
 N_NET20_c_1829_p N_NET20_c_1830_p N_NET20_c_1831_p N_NET20_c_1832_p \
 N_NET20_c_1833_p N_NET20_c_1917_p N_NET20_c_1788_n N_NET20_c_1835_p \
 N_NET20_c_1877_p N_NET20_c_1790_n N_NET20_c_1792_n N_NET20_c_1793_n \
 N_NET20_XI5\/MPM1_d N_NET20_XI5\/MPM0_d N_NET20_c_1796_n N_NET20_XI5\/MNM1_d \
 N_NET20_c_1798_n N_NET20_c_1803_n N_NET20_c_1879_p N_NET20_c_1806_n \
 N_NET20_c_1814_n N_NET20_c_1837_p N_NET20_c_1815_n N_NET20_c_1854_p )  \
 PM_MS_JK_FF\%NET20
x_PM_MS_JK_FF\%NET21 ( N_NET21_XI11\/XI0\/MNM0_g N_NET21_XI11\/XI0\/MPM0_g \
 N_NET21_c_2024_n N_NET21_c_2014_n N_NET21_c_2027_n N_NET21_c_2029_n \
 N_NET21_c_2030_n N_NET21_c_2031_n N_NET21_c_2033_n N_NET21_c_2034_n \
 N_NET21_c_2035_n N_NET21_c_2075_p N_NET21_c_2045_n N_NET21_c_1995_n \
 N_NET21_c_2003_n N_NET21_c_2004_n N_NET21_XI4\/MPM1_d N_NET21_XI4\/MPM0_d \
 N_NET21_c_2006_n N_NET21_XI4\/MNM1_d N_NET21_c_2018_n N_NET21_c_2019_n \
 N_NET21_c_2076_p N_NET21_c_2009_n N_NET21_c_2013_n N_NET21_c_2021_n \
 N_NET21_c_2023_n N_NET21_c_2057_n N_NET21_c_2058_n N_NET21_c_2059_n )  \
 PM_MS_JK_FF\%NET21
x_PM_MS_JK_FF\%Q ( N_Q_XI1\/MNM1_g N_Q_XI1\/MPM2_g N_Q_c_2207_n N_Q_c_2241_n \
 N_Q_c_2242_n N_Q_c_2208_n N_Q_c_2247_n N_Q_c_2281_n N_Q_c_2210_n N_Q_c_2221_n \
 N_Q_c_2225_n N_Q_XI11\/XI1\/MNM0_g N_Q_XI11\/XI1\/MPM0_g N_Q_c_2425_p \
 N_Q_c_2311_n N_Q_c_2358_n N_Q_c_2359_n N_Q_c_2360_n N_Q_c_2312_n N_Q_c_2313_n \
 N_Q_c_2314_n N_Q_c_2315_n N_Q_c_2318_n N_Q_c_2322_n N_Q_c_2323_n N_Q_c_2324_n \
 N_Q_c_2438_p N_Q_c_2325_n N_Q_c_2392_p N_Q_XI11\/XI0\/MPM0_d N_Q_c_2327_n \
 N_Q_XI11\/XI0\/MPM1_d N_Q_XI11\/XI0\/MNM1_d N_Q_c_2330_n N_Q_c_2331_n \
 N_Q_c_2333_n N_Q_c_2257_n N_Q_c_2552_p N_Q_c_2535_p N_Q_c_2228_n N_Q_c_2233_n \
 N_Q_c_2234_n N_Q_c_2303_n N_Q_c_2306_n N_Q_c_2308_n N_Q_c_2334_n N_Q_c_2336_n \
 N_Q_c_2235_n N_Q_c_2337_n N_Q_c_2309_n N_Q_c_2344_n Q N_Q_c_2236_n \
 N_Q_c_2266_n )  PM_MS_JK_FF\%Q
x_PM_MS_JK_FF\%Q_ ( N_Q__XI0\/MNM0_g N_Q__XI0\/MPM0_g N_Q__c_2591_n \
 N_Q__c_2592_n N_Q__c_2594_n N_Q__c_2595_n N_Q__c_2596_n N_Q__c_2599_n \
 N_Q__c_2603_n N_Q__c_2604_n N_Q__c_2570_n N_Q__c_2652_n N_Q__c_2577_n \
 N_Q__XI11\/XI0\/MNM1_g N_Q__XI11\/XI0\/MPM1_g N_Q__c_2683_n N_Q__c_2684_n \
 N_Q__c_2685_n N_Q__c_2773_n N_Q__c_2686_n N_Q__c_2687_n N_Q__c_2689_n \
 N_Q__c_2690_n N_Q__c_2691_n N_Q__c_2692_n N_Q__c_2693_n N_Q__c_2694_n \
 N_Q__c_2696_n N_Q__c_2793_n N_Q__c_2794_n N_Q__c_2702_n N_Q__c_2795_n \
 N_Q__c_2703_n N_Q__XI11\/XI1\/MPM0_d N_Q__c_2704_n N_Q__XI11\/XI1\/MPM1_d \
 N_Q__c_2705_n N_Q__XI11\/XI1\/MNM1_d N_Q__c_2746_n N_Q__c_2810_n \
 N_Q__c_2710_n N_Q__c_2711_n N_Q__c_2712_n N_Q__c_2715_n N_Q__c_2748_n \
 N_Q__c_2614_n N_Q__c_2911_p N_Q__c_2929_p N_Q__c_2615_n N_Q__c_2578_n \
 N_Q__c_2579_n N_Q__c_2580_n N_Q__c_2583_n N_Q__c_2674_n N_Q__c_2676_n \
 N_Q__c_2718_n N_Q__c_2755_n N_Q__c_2756_n N_Q__c_2720_n N_Q__c_2829_n \
 N_Q__c_2980_p N_Q__c_2725_n N_Q__c_2727_n N_Q__c_2838_n Q_ N_Q__c_2619_n \
 N_Q__c_2620_n )  PM_MS_JK_FF\%Q_
x_PM_MS_JK_FF\%VDD ( N_VDD_XI0\/MPM0_b N_VDD_c_3042_n N_VDD_c_3044_n \
 N_VDD_c_3045_n N_VDD_c_3090_n N_VDD_c_2993_n N_VDD_c_2996_n N_VDD_c_2997_n \
 N_VDD_c_3095_n N_VDD_XI0\/MPM1_s N_VDD_XI0\/MPM0_s N_VDD_XI0\/MPM2_s \
 N_VDD_c_3251_n N_VDD_XI1\/MPM1_b N_VDD_c_3053_n N_VDD_c_3055_n N_VDD_c_3056_n \
 N_VDD_c_3068_n N_VDD_c_3001_n N_VDD_c_3004_n N_VDD_c_3005_n N_VDD_c_3059_n \
 N_VDD_XI1\/MPM2_s N_VDD_XI1\/MPM1_s N_VDD_XI1\/MPM0_s N_VDD_c_3061_n \
 N_VDD_XI10\/XI0\/MPM0_b N_VDD_c_3009_n N_VDD_c_3010_n N_VDD_c_3011_n \
 N_VDD_c_3012_n N_VDD_c_3013_n N_VDD_c_3014_n N_VDD_c_3015_n N_VDD_c_3016_n \
 N_VDD_c_3017_n N_VDD_c_3018_n N_VDD_c_3019_n N_VDD_c_3020_n N_VDD_c_3021_n \
 N_VDD_c_3022_n N_VDD_XI10\/XI0\/MPM1_s N_VDD_XI10\/XI0\/MPM0_s \
 N_VDD_XI10\/XI1\/MPM1_s N_VDD_XI10\/XI1\/MPM0_s N_VDD_XI11\/XI0\/MPM0_b \
 N_VDD_c_3167_n N_VDD_c_3185_n N_VDD_c_3186_n N_VDD_c_3218_n N_VDD_c_3219_n \
 N_VDD_c_3221_n N_VDD_c_3292_n N_VDD_c_3222_n N_VDD_c_3168_n N_VDD_c_3170_n \
 N_VDD_c_3171_n N_VDD_c_3172_n N_VDD_c_3302_n N_VDD_c_3230_n N_VDD_c_3190_n \
 N_VDD_XI11\/XI0\/MPM1_s N_VDD_XI11\/XI0\/MPM0_s N_VDD_XI11\/XI1\/MPM1_s \
 N_VDD_XI11\/XI1\/MPM0_s N_VDD_XI4\/MPM0_b N_VDD_c_3131_n N_VDD_c_3023_n \
 N_VDD_c_3311_n N_VDD_c_3353_p N_VDD_c_3137_n N_VDD_c_3140_n N_VDD_c_3313_n \
 N_VDD_c_3355_p N_VDD_c_3141_n N_VDD_c_3197_n N_VDD_c_3315_n N_VDD_XI4\/MPM0_s \
 N_VDD_XI4\/MPM1_s N_VDD_XI5\/MPM0_b N_VDD_c_3360_p N_VDD_c_3175_n \
 N_VDD_c_3317_n N_VDD_c_3155_n N_VDD_c_3318_n N_VDD_c_3177_n N_VDD_c_3156_n \
 N_VDD_c_3159_n N_VDD_c_3160_n N_VDD_c_3181_n N_VDD_c_3321_n N_VDD_XI5\/MPM0_s \
 N_VDD_XI5\/MPM1_s N_VDD_XI8\/MPM0_b N_VDD_c_3024_n N_VDD_c_3025_n \
 N_VDD_c_3035_n VDD N_VDD_c_3052_n N_VDD_c_3327_n N_VDD_c_3110_n \
 N_VDD_c_3036_n N_VDD_c_3084_n N_VDD_c_3037_n N_VDD_c_3038_n N_VDD_c_3040_n \
 N_VDD_c_3041_n N_VDD_c_3335_n N_VDD_c_3336_n N_VDD_c_3337_n N_VDD_c_3338_n \
 N_VDD_c_3203_n N_VDD_c_3340_n N_VDD_c_3182_n N_VDD_c_3342_n N_VDD_XI8\/MPM0_s \
 )  PM_MS_JK_FF\%VDD
x_PM_MS_JK_FF\%GND ( N_GND_XI0\/MNM0_b N_GND_c_3430_n N_GND_c_3388_n \
 N_GND_c_3389_n N_GND_c_3391_n N_GND_c_3392_n N_GND_c_3397_n N_GND_XI0\/MNM0_d \
 N_GND_c_3436_n N_GND_c_3398_n N_GND_c_3399_n N_GND_c_3401_n N_GND_c_3402_n \
 N_GND_c_3407_n N_GND_XI1\/MNM2_s N_GND_c_3408_n N_GND_c_3409_n N_GND_c_3465_n \
 N_GND_c_3472_n N_GND_c_3505_n N_GND_c_3507_n N_GND_c_3473_n N_GND_c_3474_n \
 N_GND_c_3449_n N_GND_c_3480_n N_GND_c_3515_n N_GND_c_3450_n N_GND_c_3519_n \
 N_GND_XI10\/XI0\/MNM0_s N_GND_XI10\/XI1\/MNM0_s N_GND_c_3545_n N_GND_c_3548_n \
 N_GND_c_3566_n N_GND_c_3596_n N_GND_c_3649_n N_GND_c_3651_n N_GND_c_3597_n \
 N_GND_c_3598_n N_GND_c_3549_n N_GND_c_3604_n N_GND_c_3660_n N_GND_c_3550_n \
 N_GND_c_3664_n N_GND_c_3609_n N_GND_XI11\/XI0\/MNM0_s N_GND_XI11\/XI1\/MNM0_s \
 N_GND_c_3487_n N_GND_c_3490_n N_GND_c_3491_n N_GND_XI4\/MNM0_s N_GND_c_3523_n \
 N_GND_c_3524_n N_GND_c_3525_n N_GND_XI5\/MNM0_s N_GND_c_3411_n N_GND_c_3412_n \
 N_GND_c_3416_n N_GND_c_3417_n N_GND_c_3418_n N_GND_c_3468_n N_GND_c_3496_n \
 N_GND_c_3684_p N_GND_c_3577_n GND N_GND_c_3419_n N_GND_c_3420_n \
 N_GND_c_3422_n N_GND_c_3425_n N_GND_c_3426_n N_GND_c_3497_n N_GND_c_3428_n \
 N_GND_c_3541_n N_GND_c_3542_n N_GND_c_3543_n N_GND_c_3544_n N_GND_c_3558_n \
 N_GND_c_3559_n N_GND_XI8\/MNM0_s )  PM_MS_JK_FF\%GND
x_PM_MS_JK_FF\%NET19 ( N_NET19_XI4\/MNM1_g N_NET19_XI4\/MPM1_g \
 N_NET19_c_3823_n N_NET19_c_3730_n N_NET19_c_3731_n N_NET19_c_3732_n \
 N_NET19_c_3736_n N_NET19_c_3739_n N_NET19_c_3740_n N_NET19_c_3741_n \
 N_NET19_XI5\/MNM0_g N_NET19_XI5\/MPM0_g N_NET19_c_3774_n N_NET19_c_3775_n \
 N_NET19_c_3742_n N_NET19_c_3777_n N_NET19_c_3778_n N_NET19_c_3781_n \
 N_NET19_c_3785_n N_NET19_c_3786_n N_NET19_c_3787_n N_NET19_c_3845_n \
 N_NET19_c_3712_n N_NET19_c_3745_n N_NET19_c_3790_n N_NET19_c_3715_n \
 N_NET19_c_3750_n N_NET19_c_3752_n N_NET19_c_3760_n N_NET19_c_3794_n \
 N_NET19_c_3764_n N_NET19_XI8\/MPM0_d N_NET19_c_3716_n N_NET19_XI8\/MNM0_d \
 N_NET19_c_3717_n N_NET19_c_3718_n N_NET19_c_3721_n N_NET19_c_3724_n )  \
 PM_MS_JK_FF\%NET19
cc_1 ( N_XI0\/NET21_c_1_n N_XI0\/NET20_c_20_n ) capacitor c=0.00967998f
cc_2 ( N_XI1\/NET20_c_47_n N_XI1\/NET21_c_64_n ) capacitor c=0.00980869f
cc_3 ( N_CLK_XI0\/MPM2_g N_J_XI0\/MPM1_g ) capacitor c=0.00336707f
cc_4 ( N_CLK_c_93_p N_J_c_434_n ) capacitor c=3.91545e-19
cc_5 ( N_CLK_c_93_p N_J_c_435_n ) capacitor c=8.45477e-19
cc_6 ( N_CLK_c_95_p N_J_c_435_n ) capacitor c=0.00264413f
cc_7 ( N_CLK_c_96_p N_J_c_437_n ) capacitor c=0.00253565f
cc_8 ( N_CLK_c_97_p N_J_c_437_n ) capacitor c=6.67347e-19
cc_9 ( N_CLK_c_98_p N_J_c_437_n ) capacitor c=0.00305474f
cc_10 ( N_CLK_c_99_p N_J_c_437_n ) capacitor c=2.53553e-19
cc_11 ( N_CLK_c_100_p N_J_c_437_n ) capacitor c=0.00576398f
cc_12 ( N_CLK_c_101_p N_J_c_437_n ) capacitor c=0.00173625f
cc_13 ( N_CLK_c_93_p N_J_c_437_n ) capacitor c=0.00199645f
cc_14 ( N_CLK_c_95_p N_J_c_437_n ) capacitor c=0.00129296f
cc_15 ( N_CLK_c_104_p N_J_c_437_n ) capacitor c=0.00334143f
cc_16 ( N_CLK_c_105_p N_J_c_437_n ) capacitor c=3.72812e-19
cc_17 ( N_CLK_c_106_p N_J_c_447_n ) capacitor c=2.7003e-19
cc_18 ( N_CLK_c_107_p N_J_c_447_n ) capacitor c=7.41364e-19
cc_19 ( N_CLK_c_93_p N_J_c_447_n ) capacitor c=0.00589628f
cc_20 ( N_CLK_c_95_p N_J_c_447_n ) capacitor c=0.00102453f
cc_21 ( N_CLK_c_106_p N_J_c_451_n ) capacitor c=0.00317776f
cc_22 ( N_CLK_c_111_p N_J_c_451_n ) capacitor c=0.00213625f
cc_23 ( N_CLK_XI1\/MPM0_g N_K_c_539_n ) capacitor c=0.00291547f
cc_24 ( N_CLK_c_113_p N_K_c_539_n ) capacitor c=0.00317582f
cc_25 ( N_CLK_c_114_p N_K_c_539_n ) capacitor c=7.4796e-19
cc_26 ( N_CLK_c_115_p N_K_c_539_n ) capacitor c=0.00373531f
cc_27 ( N_CLK_c_116_p N_K_c_539_n ) capacitor c=0.00192125f
cc_28 ( N_CLK_c_117_p N_K_c_539_n ) capacitor c=0.00119765f
cc_29 ( N_CLK_c_118_p N_K_c_539_n ) capacitor c=2.24073e-19
cc_30 ( N_CLK_c_119_p N_K_c_539_n ) capacitor c=0.003087f
cc_31 ( N_CLK_c_120_p N_K_c_547_n ) capacitor c=0.00247276f
cc_32 ( N_CLK_c_121_p N_K_c_548_n ) capacitor c=0.00506285f
cc_33 ( N_CLK_c_122_p N_K_c_549_n ) capacitor c=0.0688815f
cc_34 ( N_CLK_c_111_p N_K_c_549_n ) capacitor c=0.00162535f
cc_35 ( N_CLK_c_111_p N_K_c_551_n ) capacitor c=0.0712341f
cc_36 ( N_CLK_c_106_p N_K_c_552_n ) capacitor c=0.00105353f
cc_37 ( N_CLK_c_126_p N_K_c_552_n ) capacitor c=4.74721e-19
cc_38 ( N_CLK_c_107_p N_K_c_552_n ) capacitor c=0.00119268f
cc_39 ( N_CLK_c_95_p N_K_c_552_n ) capacitor c=0.0010818f
cc_40 ( N_CLK_c_104_p N_K_c_552_n ) capacitor c=0.0011647f
cc_41 ( N_CLK_c_121_p N_K_c_552_n ) capacitor c=0.00510264f
cc_42 ( N_CLK_c_121_p N_K_c_558_n ) capacitor c=0.00228703f
cc_43 ( N_CLK_c_113_p N_NET22_c_685_n ) capacitor c=0.00742863f
cc_44 ( N_CLK_c_133_p N_NET22_c_685_n ) capacitor c=0.0221836f
cc_45 ( N_CLK_c_117_p N_NET22_c_685_n ) capacitor c=7.18348e-19
cc_46 ( N_CLK_c_135_p N_NET22_c_685_n ) capacitor c=4.62193e-19
cc_47 ( N_CLK_c_136_p N_NET22_c_685_n ) capacitor c=5.47691e-19
cc_48 ( N_CLK_c_137_p N_NET22_c_685_n ) capacitor c=0.0015518f
cc_49 ( N_CLK_c_138_p N_NET22_c_685_n ) capacitor c=4.60256e-19
cc_50 ( N_CLK_c_139_p N_NET22_c_685_n ) capacitor c=0.00120792f
cc_51 ( N_CLK_c_140_p N_NET22_c_685_n ) capacitor c=0.00516462f
cc_52 ( N_CLK_XI1\/MPM0_g N_NET22_c_694_n ) capacitor c=0.00271566f
cc_53 ( N_CLK_c_142_p N_NET22_c_694_n ) capacitor c=0.00293152f
cc_54 ( N_CLK_c_143_p N_NET22_c_696_n ) capacitor c=0.00131345f
cc_55 ( N_CLK_c_142_p N_NET22_c_696_n ) capacitor c=5.49025e-19
cc_56 ( N_CLK_c_145_p N_NET22_c_696_n ) capacitor c=4.64796e-19
cc_57 ( N_CLK_XI1\/MPM0_g N_NET22_c_699_n ) capacitor c=0.00560038f
cc_58 ( N_CLK_c_147_p N_NET22_c_699_n ) capacitor c=7.47396e-19
cc_59 ( N_CLK_c_114_p N_NET22_c_699_n ) capacitor c=0.00797743f
cc_60 ( N_CLK_c_117_p N_NET22_c_699_n ) capacitor c=3.67059e-19
cc_61 ( N_CLK_c_145_p N_NET22_c_699_n ) capacitor c=6.34892e-19
cc_62 ( N_CLK_c_151_p N_NET22_c_704_n ) capacitor c=0.00566126f
cc_63 ( N_CLK_c_147_p N_NET22_c_704_n ) capacitor c=8.54765e-19
cc_64 ( N_CLK_c_114_p N_NET22_c_704_n ) capacitor c=0.00993063f
cc_65 ( N_CLK_c_154_p N_NET22_c_704_n ) capacitor c=0.0063141f
cc_66 ( N_CLK_c_133_p N_NET22_c_704_n ) capacitor c=0.0063141f
cc_67 ( N_CLK_c_117_p N_NET22_c_704_n ) capacitor c=6.53276e-19
cc_68 ( N_CLK_c_118_p N_NET22_c_704_n ) capacitor c=0.00128943f
cc_69 ( N_CLK_c_158_p N_NET22_c_704_n ) capacitor c=0.00997352f
cc_70 ( N_CLK_c_140_p N_NET22_c_704_n ) capacitor c=0.0097246f
cc_71 ( N_CLK_XI1\/MPM0_g N_NET22_c_713_n ) capacitor c=0.0011383f
cc_72 ( N_CLK_c_147_p N_NET22_c_713_n ) capacitor c=5.04135e-19
cc_73 ( N_CLK_c_117_p N_NET22_c_713_n ) capacitor c=5.64437e-19
cc_74 ( N_CLK_c_119_p N_NET22_c_713_n ) capacitor c=4.40449e-19
cc_75 ( N_CLK_c_164_p N_NET22_XI10\/XI1\/MPM1_g ) capacitor c=0.00178364f
cc_76 ( N_CLK_c_138_p N_NET22_c_718_n ) capacitor c=0.0065799f
cc_77 ( N_CLK_c_166_p N_NET22_c_718_n ) capacitor c=0.0135269f
cc_78 ( N_CLK_c_167_p N_NET22_c_718_n ) capacitor c=5.66587e-19
cc_79 ( N_CLK_c_136_p N_NET22_c_721_n ) capacitor c=0.00383765f
cc_80 ( N_CLK_c_169_p N_NET22_c_721_n ) capacitor c=0.00259625f
cc_81 ( N_CLK_c_151_p N_NET22_c_723_n ) capacitor c=0.00283442f
cc_82 ( N_CLK_c_114_p N_NET22_c_723_n ) capacitor c=0.0012321f
cc_83 ( N_CLK_c_172_p N_NET22_c_723_n ) capacitor c=0.00184439f
cc_84 ( N_CLK_c_133_p N_NET22_c_723_n ) capacitor c=0.00671871f
cc_85 ( N_CLK_c_174_p N_NET22_c_723_n ) capacitor c=2.0085e-19
cc_86 ( N_CLK_c_117_p N_NET22_c_723_n ) capacitor c=7.87049e-19
cc_87 ( N_CLK_c_176_p N_NET22_c_723_n ) capacitor c=0.00121376f
cc_88 ( N_CLK_c_136_p N_NET22_c_723_n ) capacitor c=0.00293152f
cc_89 ( N_CLK_c_120_p N_NET22_c_723_n ) capacitor c=0.256115f
cc_90 ( N_CLK_c_135_p N_NET22_c_732_n ) capacitor c=9.47199e-19
cc_91 ( N_CLK_c_137_p N_NET22_c_732_n ) capacitor c=0.0107255f
cc_92 ( N_CLK_c_138_p N_NET22_c_732_n ) capacitor c=0.00523815f
cc_93 ( N_CLK_c_139_p N_NET22_c_732_n ) capacitor c=0.0036276f
cc_94 ( N_CLK_c_140_p N_NET22_c_732_n ) capacitor c=0.00196264f
cc_95 ( N_CLK_c_169_p N_NET22_c_732_n ) capacitor c=0.00273705f
cc_96 ( N_CLK_c_106_p N_NET23_c_944_n ) capacitor c=0.00271571f
cc_97 ( N_CLK_c_98_p N_NET23_c_944_n ) capacitor c=0.00104683f
cc_98 ( N_CLK_c_100_p N_NET23_c_944_n ) capacitor c=0.00178094f
cc_99 ( N_CLK_c_126_p N_NET23_c_944_n ) capacitor c=0.00608291f
cc_100 ( N_CLK_c_95_p N_NET23_c_944_n ) capacitor c=7.65594e-19
cc_101 ( N_CLK_c_104_p N_NET23_c_944_n ) capacitor c=0.00117259f
cc_102 ( N_CLK_c_122_p N_NET23_c_944_n ) capacitor c=0.00164336f
cc_103 ( N_CLK_c_111_p N_NET23_c_944_n ) capacitor c=0.230554f
cc_104 ( N_CLK_c_96_p N_NET23_c_952_n ) capacitor c=0.00742852f
cc_105 ( N_CLK_c_126_p N_NET23_c_952_n ) capacitor c=0.0220109f
cc_106 ( N_CLK_c_95_p N_NET23_c_952_n ) capacitor c=7.19907e-19
cc_107 ( N_CLK_c_111_p N_NET23_c_952_n ) capacitor c=0.00516462f
cc_108 ( N_CLK_XI0\/MPM2_g N_NET23_c_956_n ) capacitor c=0.00560256f
cc_109 ( N_CLK_c_97_p N_NET23_c_956_n ) capacitor c=7.47396e-19
cc_110 ( N_CLK_c_98_p N_NET23_c_956_n ) capacitor c=0.00797743f
cc_111 ( N_CLK_c_95_p N_NET23_c_956_n ) capacitor c=3.67059e-19
cc_112 ( N_CLK_c_106_p N_NET23_c_960_n ) capacitor c=0.00563057f
cc_113 ( N_CLK_c_97_p N_NET23_c_960_n ) capacitor c=8.54765e-19
cc_114 ( N_CLK_c_98_p N_NET23_c_960_n ) capacitor c=0.00993063f
cc_115 ( N_CLK_c_204_p N_NET23_c_960_n ) capacitor c=0.00627239f
cc_116 ( N_CLK_c_126_p N_NET23_c_960_n ) capacitor c=0.00627239f
cc_117 ( N_CLK_c_95_p N_NET23_c_960_n ) capacitor c=6.53276e-19
cc_118 ( N_CLK_c_105_p N_NET23_c_960_n ) capacitor c=0.00128943f
cc_119 ( N_CLK_c_208_p N_NET23_c_960_n ) capacitor c=0.00997351f
cc_120 ( N_CLK_c_111_p N_NET23_c_960_n ) capacitor c=0.0097246f
cc_121 ( N_CLK_XI0\/MPM2_g N_NET23_c_969_n ) capacitor c=0.00114012f
cc_122 ( N_CLK_c_97_p N_NET23_c_969_n ) capacitor c=5.01747e-19
cc_123 ( N_CLK_c_95_p N_NET23_c_969_n ) capacitor c=5.65671e-19
cc_124 ( N_CLK_c_213_p N_NET23_XI10\/XI0\/MPM0_g ) capacitor c=0.00177629f
cc_125 ( N_CLK_c_138_p N_NET23_c_973_n ) capacitor c=4.85408e-19
cc_126 ( N_CLK_c_139_p N_NET23_c_973_n ) capacitor c=3.97974e-19
cc_127 ( N_CLK_c_139_p N_NET23_c_975_n ) capacitor c=0.00163721f
cc_128 ( N_CLK_c_119_p N_NET23_c_975_n ) capacitor c=6.62813e-19
cc_129 ( N_CLK_c_119_p N_NET23_c_977_n ) capacitor c=0.0065799f
cc_130 ( N_CLK_c_219_p N_NET23_c_977_n ) capacitor c=0.0157005f
cc_131 ( N_CLK_c_220_p N_NET23_c_977_n ) capacitor c=0.0116982f
cc_132 ( N_CLK_c_143_p N_NET23_c_980_n ) capacitor c=7.284e-19
cc_133 ( N_CLK_c_137_p N_NET23_c_981_n ) capacitor c=6.60467e-19
cc_134 ( N_CLK_c_142_p N_NET23_c_982_n ) capacitor c=0.00538061f
cc_135 ( N_CLK_XI0\/MPM2_g N_NET23_c_983_n ) capacitor c=0.00293912f
cc_136 ( N_CLK_c_121_p N_NET23_c_984_n ) capacitor c=2.13297e-19
cc_137 ( N_CLK_XI1\/MPM0_g N_NET23_c_985_n ) capacitor c=7.11884e-19
cc_138 ( N_CLK_c_135_p N_NET23_c_986_n ) capacitor c=2.33637e-19
cc_139 ( N_CLK_c_139_p N_NET23_c_986_n ) capacitor c=0.00378225f
cc_140 ( N_CLK_c_119_p N_NET23_c_986_n ) capacitor c=0.0054747f
cc_141 ( N_CLK_c_143_p N_NET23_c_986_n ) capacitor c=0.00991779f
cc_142 ( N_CLK_c_145_p N_NET23_c_986_n ) capacitor c=0.00205478f
cc_143 ( N_CLK_c_164_p N_NET14_XI10\/XI1\/MPM0_g ) capacitor c=0.00169352f
cc_144 ( N_CLK_c_219_p N_NET14_c_1215_n ) capacitor c=0.00149099f
cc_145 ( N_CLK_c_213_p N_NET14_c_1216_n ) capacitor c=0.00491214f
cc_146 ( N_CLK_c_219_p N_NET14_c_1216_n ) capacitor c=0.00396832f
cc_147 ( N_CLK_c_142_p N_NET14_c_1218_n ) capacitor c=0.00791744f
cc_148 ( N_CLK_c_213_p N_NET14_c_1218_n ) capacitor c=0.109899f
cc_149 ( N_CLK_c_143_p N_NET14_c_1220_n ) capacitor c=8.43678e-19
cc_150 ( N_CLK_c_142_p N_NET14_c_1220_n ) capacitor c=4.36059e-19
cc_151 ( N_CLK_c_145_p N_NET14_c_1220_n ) capacitor c=0.00111308f
cc_152 ( N_CLK_c_213_p N_NET14_c_1220_n ) capacitor c=0.00501629f
cc_153 ( N_CLK_c_166_p N_NET14_c_1224_n ) capacitor c=4.25745e-19
cc_154 ( N_CLK_c_136_p N_NET14_c_1225_n ) capacitor c=0.00830636f
cc_155 ( N_CLK_c_244_p N_NET14_c_1226_n ) capacitor c=7.13843e-19
cc_156 ( N_CLK_c_245_p N_NET14_c_1226_n ) capacitor c=5.93728e-19
cc_157 ( N_CLK_c_166_p N_NET14_c_1226_n ) capacitor c=0.0378232f
cc_158 ( N_CLK_c_213_p N_NET15_XI10\/XI0\/MPM1_g ) capacitor c=0.00169352f
cc_159 ( N_CLK_c_137_p N_NET15_c_1493_n ) capacitor c=5.62865e-19
cc_160 ( N_CLK_c_164_p N_NET15_c_1494_n ) capacitor c=0.120859f
cc_161 ( N_CLK_c_250_p N_NET15_c_1494_n ) capacitor c=0.0111959f
cc_162 ( N_CLK_c_164_p N_NET15_c_1496_n ) capacitor c=0.00395177f
cc_163 ( N_CLK_c_245_p N_NET15_c_1496_n ) capacitor c=6.80762e-19
cc_164 ( N_CLK_c_250_p N_NET15_c_1496_n ) capacitor c=6.46189e-19
cc_165 ( N_CLK_c_164_p N_NET15_c_1499_n ) capacitor c=0.0039337f
cc_166 ( N_CLK_c_164_p N_NET15_c_1500_n ) capacitor c=0.00501298f
cc_167 ( N_CLK_c_245_p N_NET15_c_1500_n ) capacitor c=6.19305e-19
cc_168 ( N_CLK_c_244_p N_NET15_c_1502_n ) capacitor c=2.43798e-19
cc_169 ( N_CLK_c_258_p N_NET15_c_1502_n ) capacitor c=2.30882e-19
cc_170 ( N_CLK_c_166_p N_NET15_c_1504_n ) capacitor c=0.00325896f
cc_171 ( N_CLK_c_167_p N_NET15_c_1504_n ) capacitor c=3.30061e-19
cc_172 ( N_CLK_XI8\/MPM0_g N_NET15_c_1506_n ) capacitor c=3.5271e-19
cc_173 ( N_CLK_c_220_p N_NET15_c_1506_n ) capacitor c=6.56216e-19
cc_174 ( N_CLK_c_263_p N_NET15_c_1508_n ) capacitor c=0.00226038f
cc_175 ( N_CLK_c_158_p N_NET15_c_1509_n ) capacitor c=2.85884e-19
cc_176 ( N_CLK_c_265_p N_NET15_c_1509_n ) capacitor c=0.00984322f
cc_177 ( N_CLK_XI1\/MPM0_g N_Q_XI1\/MPM2_g ) capacitor c=0.00324408f
cc_178 ( N_CLK_c_116_p N_Q_c_2207_n ) capacitor c=3.90211e-19
cc_179 ( N_CLK_c_116_p N_Q_c_2208_n ) capacitor c=8.45477e-19
cc_180 ( N_CLK_c_117_p N_Q_c_2208_n ) capacitor c=0.00264413f
cc_181 ( N_CLK_c_113_p N_Q_c_2210_n ) capacitor c=0.00253565f
cc_182 ( N_CLK_c_147_p N_Q_c_2210_n ) capacitor c=6.67347e-19
cc_183 ( N_CLK_c_114_p N_Q_c_2210_n ) capacitor c=0.00305474f
cc_184 ( N_CLK_c_115_p N_Q_c_2210_n ) capacitor c=2.53553e-19
cc_185 ( N_CLK_c_172_p N_Q_c_2210_n ) capacitor c=0.00580857f
cc_186 ( N_CLK_c_275_p N_Q_c_2210_n ) capacitor c=0.00171396f
cc_187 ( N_CLK_c_116_p N_Q_c_2210_n ) capacitor c=0.00188382f
cc_188 ( N_CLK_c_117_p N_Q_c_2210_n ) capacitor c=0.00129292f
cc_189 ( N_CLK_c_176_p N_Q_c_2210_n ) capacitor c=0.00334143f
cc_190 ( N_CLK_c_118_p N_Q_c_2210_n ) capacitor c=3.72812e-19
cc_191 ( N_CLK_c_138_p N_Q_c_2210_n ) capacitor c=0.00308717f
cc_192 ( N_CLK_c_151_p N_Q_c_2221_n ) capacitor c=2.7003e-19
cc_193 ( N_CLK_c_174_p N_Q_c_2221_n ) capacitor c=7.38801e-19
cc_194 ( N_CLK_c_116_p N_Q_c_2221_n ) capacitor c=0.00589637f
cc_195 ( N_CLK_c_117_p N_Q_c_2221_n ) capacitor c=0.00102453f
cc_196 ( N_CLK_c_151_p N_Q_c_2225_n ) capacitor c=0.00316349f
cc_197 ( N_CLK_c_120_p N_Q_c_2225_n ) capacitor c=0.00106204f
cc_198 ( N_CLK_c_140_p N_Q_c_2225_n ) capacitor c=0.00106322f
cc_199 ( N_CLK_c_204_p N_Q_c_2228_n ) capacitor c=4.33057e-19
cc_200 ( N_CLK_c_208_p N_Q_c_2228_n ) capacitor c=7.44797e-19
cc_201 ( N_CLK_c_158_p N_Q_c_2228_n ) capacitor c=0.00307907f
cc_202 ( N_CLK_c_121_p N_Q_c_2228_n ) capacitor c=0.0115006f
cc_203 ( N_CLK_c_292_p N_Q_c_2228_n ) capacitor c=0.0531612f
cc_204 ( N_CLK_c_140_p N_Q_c_2233_n ) capacitor c=0.00389851f
cc_205 ( N_CLK_c_135_p N_Q_c_2234_n ) capacitor c=0.00298237f
cc_206 ( N_CLK_c_292_p N_Q_c_2235_n ) capacitor c=0.00267575f
cc_207 ( N_CLK_c_292_p N_Q_c_2236_n ) capacitor c=0.00954381f
cc_208 ( N_CLK_XI0\/MPM2_g N_Q__c_2570_n ) capacitor c=0.00291551f
cc_209 ( N_CLK_c_96_p N_Q__c_2570_n ) capacitor c=0.00317582f
cc_210 ( N_CLK_c_98_p N_Q__c_2570_n ) capacitor c=7.4796e-19
cc_211 ( N_CLK_c_99_p N_Q__c_2570_n ) capacitor c=0.00373531f
cc_212 ( N_CLK_c_93_p N_Q__c_2570_n ) capacitor c=0.00192125f
cc_213 ( N_CLK_c_95_p N_Q__c_2570_n ) capacitor c=0.00119765f
cc_214 ( N_CLK_c_105_p N_Q__c_2570_n ) capacitor c=2.24073e-19
cc_215 ( N_CLK_c_111_p N_Q__c_2577_n ) capacitor c=0.00236432f
cc_216 ( N_CLK_XI0\/MPM2_g N_Q__c_2578_n ) capacitor c=0.00106283f
cc_217 ( N_CLK_XI1\/MPM0_g N_Q__c_2579_n ) capacitor c=6.55326e-19
cc_218 ( N_CLK_c_307_p N_Q__c_2580_n ) capacitor c=0.00452573f
cc_219 ( N_CLK_c_145_p N_Q__c_2580_n ) capacitor c=0.00998045f
cc_220 ( N_CLK_c_213_p N_Q__c_2580_n ) capacitor c=0.0262657f
cc_221 ( N_CLK_XI8\/MPM0_g N_Q__c_2583_n ) capacitor c=0.00112601f
cc_222 ( N_CLK_c_311_p N_Q__c_2583_n ) capacitor c=0.00359271f
cc_223 ( N_CLK_c_213_p N_Q__c_2583_n ) capacitor c=0.00986046f
cc_224 ( N_CLK_c_219_p N_Q__c_2583_n ) capacitor c=0.0176034f
cc_225 ( N_CLK_c_164_p N_Q__c_2583_n ) capacitor c=0.0401531f
cc_226 ( N_CLK_c_245_p N_Q__c_2583_n ) capacitor c=0.0101549f
cc_227 ( N_CLK_c_166_p N_Q__c_2583_n ) capacitor c=0.00254517f
cc_228 ( N_CLK_XI0\/MPM2_g N_VDD_c_2993_n ) capacitor c=0.0052032f
cc_229 ( N_CLK_c_93_p N_VDD_c_2993_n ) capacitor c=7.56682e-19
cc_230 ( N_CLK_c_95_p N_VDD_c_2993_n ) capacitor c=4.08642e-19
cc_231 ( N_CLK_XI0\/MPM2_g N_VDD_c_2996_n ) capacitor c=0.00268182f
cc_232 ( N_CLK_XI0\/MPM2_g N_VDD_c_2997_n ) capacitor c=0.0023264f
cc_233 ( N_CLK_c_99_p N_VDD_c_2997_n ) capacitor c=2.77741e-19
cc_234 ( N_CLK_c_95_p N_VDD_c_2997_n ) capacitor c=7.62169e-19
cc_235 ( N_CLK_c_104_p N_VDD_c_2997_n ) capacitor c=4.84379e-19
cc_236 ( N_CLK_XI1\/MPM0_g N_VDD_c_3001_n ) capacitor c=0.00519221f
cc_237 ( N_CLK_c_116_p N_VDD_c_3001_n ) capacitor c=7.56682e-19
cc_238 ( N_CLK_c_117_p N_VDD_c_3001_n ) capacitor c=4.08642e-19
cc_239 ( N_CLK_XI1\/MPM0_g N_VDD_c_3004_n ) capacitor c=0.00268f
cc_240 ( N_CLK_XI1\/MPM0_g N_VDD_c_3005_n ) capacitor c=0.0023264f
cc_241 ( N_CLK_c_115_p N_VDD_c_3005_n ) capacitor c=2.77741e-19
cc_242 ( N_CLK_c_117_p N_VDD_c_3005_n ) capacitor c=7.62169e-19
cc_243 ( N_CLK_c_176_p N_VDD_c_3005_n ) capacitor c=4.84379e-19
cc_244 ( N_CLK_c_213_p N_VDD_c_3009_n ) capacitor c=0.00287121f
cc_245 ( N_CLK_c_213_p N_VDD_c_3010_n ) capacitor c=0.00798792f
cc_246 ( N_CLK_c_213_p N_VDD_c_3011_n ) capacitor c=0.00353166f
cc_247 ( N_CLK_c_213_p N_VDD_c_3012_n ) capacitor c=6.77084e-19
cc_248 ( N_CLK_c_213_p N_VDD_c_3013_n ) capacitor c=0.00417778f
cc_249 ( N_CLK_c_219_p N_VDD_c_3014_n ) capacitor c=0.0023011f
cc_250 ( N_CLK_c_164_p N_VDD_c_3015_n ) capacitor c=8.25957e-19
cc_251 ( N_CLK_c_164_p N_VDD_c_3016_n ) capacitor c=0.00162002f
cc_252 ( N_CLK_c_164_p N_VDD_c_3017_n ) capacitor c=0.00321514f
cc_253 ( N_CLK_c_164_p N_VDD_c_3018_n ) capacitor c=0.00801944f
cc_254 ( N_CLK_c_164_p N_VDD_c_3019_n ) capacitor c=0.00127847f
cc_255 ( N_CLK_c_164_p N_VDD_c_3020_n ) capacitor c=0.00174629f
cc_256 ( N_CLK_c_164_p N_VDD_c_3021_n ) capacitor c=7.86958e-19
cc_257 ( N_CLK_c_213_p N_VDD_c_3022_n ) capacitor c=0.00176781f
cc_258 ( N_CLK_XI8\/MPM0_g N_VDD_c_3023_n ) capacitor c=3.14801e-19
cc_259 ( N_CLK_c_167_p N_VDD_c_3024_n ) capacitor c=9.15915e-19
cc_260 ( N_CLK_XI8\/MPM0_g N_VDD_c_3025_n ) capacitor c=0.00552589f
cc_261 ( N_CLK_c_350_p N_VDD_c_3025_n ) capacitor c=0.0111842f
cc_262 ( N_CLK_c_311_p N_VDD_c_3025_n ) capacitor c=4.42064e-19