// File: MS_JK_FF.pex.netlist.pex
// Created: Wed Sep 15 11:07:20 2021
// Program "Calibre xRC"
// Version "v2017.1_34.33"
// Nominal Temperature: 25C
// Circuit Temperature: 25C
// 
simulator lang=spectre
subckt PM_MS_JK_FF\%XI0\/NET21 ( 3 10 11 )
c16 ( 3 0 ) capacitor c=0.0039803f
r17 (  3 10 ) resistor r=5.5 //w=2e-07 //layer=NSD_C //x=2.245 //y=1.055 \
 //x2=2.345 //y2=1.055
r18 (  3 11 ) resistor r=5.5 //w=2e-07 //layer=NSD_C //x=2.245 //y=1.055 \
 //x2=2.145 //y2=1.055
ends PM_MS_JK_FF\%XI0\/NET21

subckt PM_MS_JK_FF\%XI0\/NET20 ( 2 3 8 10 11 14 17 )
c30 ( 11 0 ) capacitor c=0.00231538f
c31 ( 10 0 ) capacitor c=7.25097e-19
c32 ( 8 0 ) capacitor c=0.00227793f
c33 ( 2 0 ) capacitor c=3.93389e-19
r34 (  10 11 ) resistor r=0.183812 //w=1.28e-07 //layer=ME1_C //x=2.64 \
 //y=1.047 //x2=2.79 //y2=1.047
r35 (  9 17 ) resistor r=5.5 //w=2e-07 //layer=NSD_C //x=2.94 //y=1.055 \
 //x2=3.04 //y2=1.055
r36 (  8 11 ) resistor r=0.151492 //w=1.44e-07 //layer=ME1_C //x=2.94 \
 //y=1.047 //x2=2.79 //y2=1.047
r37 (  8 9 ) resistor r=35 //w=9e-08 //layer=DIF_CONT_C //x=2.94 //y=1.055 \
 //x2=2.94 //y2=1.055
r38 (  3 14 ) resistor r=5.5 //w=2e-07 //layer=NSD_C //x=2.505 //y=1.055 \
 //x2=2.405 //y2=1.055
r39 (  2 10 ) resistor r=0.15407 //w=1.34e-07 //layer=ME1_C //x=2.505 \
 //y=1.047 //x2=2.64 //y2=1.047
r40 (  2 3 ) resistor r=35 //w=9e-08 //layer=DIF_CONT_C //x=2.505 //y=1.055 \
 //x2=2.505 //y2=1.055
ends PM_MS_JK_FF\%XI0\/NET20

subckt PM_MS_JK_FF\%XI1\/NET20 ( 3 10 11 )
c14 ( 3 0 ) capacitor c=0.00392942f
r15 (  3 10 ) resistor r=5.5 //w=2e-07 //layer=NSD_C //x=5.825 //y=1.055 \
 //x2=5.925 //y2=1.055
r16 (  3 11 ) resistor r=5.5 //w=2e-07 //layer=NSD_C //x=5.825 //y=1.055 \
 //x2=5.725 //y2=1.055
ends PM_MS_JK_FF\%XI1\/NET20

subckt PM_MS_JK_FF\%XI1\/NET21 ( 2 3 8 10 11 14 17 )
c25 ( 11 0 ) capacitor c=0.00231538f
c26 ( 10 0 ) capacitor c=7.25097e-19
c27 ( 8 0 ) capacitor c=0.00215683f
c28 ( 2 0 ) capacitor c=1.6896e-19
r29 (  10 11 ) resistor r=0.183812 //w=1.28e-07 //layer=ME1_C //x=6.22 \
 //y=1.047 //x2=6.37 //y2=1.047
r30 (  9 17 ) resistor r=5.5 //w=2e-07 //layer=NSD_C //x=6.52 //y=1.055 \
 //x2=6.62 //y2=1.055
r31 (  8 11 ) resistor r=0.151492 //w=1.44e-07 //layer=ME1_C //x=6.52 \
 //y=1.047 //x2=6.37 //y2=1.047
r32 (  8 9 ) resistor r=35 //w=9e-08 //layer=DIF_CONT_C //x=6.52 //y=1.055 \
 //x2=6.52 //y2=1.055
r33 (  3 14 ) resistor r=5.5 //w=2e-07 //layer=NSD_C //x=6.085 //y=1.055 \
 //x2=5.985 //y2=1.055
r34 (  2 10 ) resistor r=0.15407 //w=1.34e-07 //layer=ME1_C //x=6.085 \
 //y=1.047 //x2=6.22 //y2=1.047
r35 (  2 3 ) resistor r=35 //w=9e-08 //layer=DIF_CONT_C //x=6.085 //y=1.055 \
 //x2=6.085 //y2=1.055
ends PM_MS_JK_FF\%XI1\/NET21

subckt PM_MS_JK_FF\%XI10\/XI0\/NET17 ( 1 2 )
r1 (  1 2 ) resistor r=11 //w=2e-07 //layer=NSD_C //x=9.48 //y=1.055 //x2=9.28 \
 //y2=1.055
ends PM_MS_JK_FF\%XI10\/XI0\/NET17

subckt PM_MS_JK_FF\%XI10\/XI1\/NET17 ( 1 2 )
r1 (  1 2 ) resistor r=11 //w=2e-07 //layer=NSD_C //x=10.735 //y=1.055 \
 //x2=10.535 //y2=1.055
ends PM_MS_JK_FF\%XI10\/XI1\/NET17

subckt PM_MS_JK_FF\%XI11\/XI0\/NET17 ( 1 2 )
r1 (  1 2 ) resistor r=11 //w=2e-07 //layer=NSD_C //x=20.115 //y=1.055 \
 //x2=19.915 //y2=1.055
ends PM_MS_JK_FF\%XI11\/XI0\/NET17

subckt PM_MS_JK_FF\%XI11\/XI1\/NET17 ( 1 2 )
r1 (  1 2 ) resistor r=11 //w=2e-07 //layer=NSD_C //x=21.37 //y=1.055 \
 //x2=21.17 //y2=1.055
ends PM_MS_JK_FF\%XI11\/XI1\/NET17

subckt PM_MS_JK_FF\%XI4\/NET17 ( 1 2 )
r1 (  1 2 ) resistor r=11 //w=2e-07 //layer=NSD_C //x=15.345 //y=1.055 \
 //x2=15.145 //y2=1.055
ends PM_MS_JK_FF\%XI4\/NET17

subckt PM_MS_JK_FF\%XI5\/NET17 ( 1 2 )
r1 (  1 2 ) resistor r=11 //w=2e-07 //layer=NSD_C //x=17.7 //y=1.055 //x2=17.5 \
 //y2=1.055
ends PM_MS_JK_FF\%XI5\/NET17

subckt PM_MS_JK_FF\%CLK ( 5 7 10 13 14 15 16 20 21 22 23 24 26 27 31 32 34 44 \
 46 49 52 53 54 55 59 60 61 62 63 65 66 70 71 73 87 89 92 95 102 103 104 105 \
 106 107 108 109 110 111 112 113 114 115 117 119 120 121 122 126 128 131 136 \
 140 141 146 147 148 149 150 151 )
c341 ( 151 0 ) capacitor c=0.00395908f
c342 ( 150 0 ) capacitor c=0.0133597f
c343 ( 149 0 ) capacitor c=0.00776561f
c344 ( 148 0 ) capacitor c=0.00478561f
c345 ( 147 0 ) capacitor c=0.00916964f
c346 ( 146 0 ) capacitor c=0.021903f
c347 ( 141 0 ) capacitor c=2.39665e-19
c348 ( 140 0 ) capacitor c=0.0384757f
c349 ( 136 0 ) capacitor c=0.0272426f
c350 ( 131 0 ) capacitor c=0.0076493f
c351 ( 126 0 ) capacitor c=0.00157193f
c352 ( 122 0 ) capacitor c=0.423145f
c353 ( 121 0 ) capacitor c=0.00133224f
c354 ( 120 0 ) capacitor c=0.0022687f
c355 ( 119 0 ) capacitor c=0.00918477f
c356 ( 117 0 ) capacitor c=0.00375402f
c357 ( 115 0 ) capacitor c=0.00563215f
c358 ( 114 0 ) capacitor c=0.00343169f
c359 ( 113 0 ) capacitor c=0.00559528f
c360 ( 112 0 ) capacitor c=0.00535297f
c361 ( 111 0 ) capacitor c=0.00472708f
c362 ( 110 0 ) capacitor c=0.00843015f
c363 ( 109 0 ) capacitor c=0.00168969f
c364 ( 108 0 ) capacitor c=0.00223408f
c365 ( 107 0 ) capacitor c=0.0012253f
c366 ( 106 0 ) capacitor c=0.0019802f
c367 ( 105 0 ) capacitor c=0.00140641f
c368 ( 104 0 ) capacitor c=0.00263704f
c369 ( 103 0 ) capacitor c=0.00183196f
c370 ( 102 0 ) capacitor c=0.00581745f
c371 ( 97 0 ) capacitor c=1.24769e-19
c372 ( 95 0 ) capacitor c=0.00289333f
c373 ( 92 0 ) capacitor c=0.0217404f
c374 ( 87 0 ) capacitor c=0.0218905f
c375 ( 73 0 ) capacitor c=0.00725759f
c376 ( 71 0 ) capacitor c=1.93432e-19
c377 ( 66 0 ) capacitor c=0.0180033f
c378 ( 65 0 ) capacitor c=1.80131e-19
c379 ( 63 0 ) capacitor c=1.55497e-19
c380 ( 62 0 ) capacitor c=0.00233382f
c381 ( 61 0 ) capacitor c=0.00166962f
c382 ( 60 0 ) capacitor c=0.00151776f
c383 ( 59 0 ) capacitor c=0.00470331f
c384 ( 55 0 ) capacitor c=2.5453e-19
c385 ( 54 0 ) capacitor c=0.00133122f
c386 ( 53 0 ) capacitor c=1.43068e-19
c387 ( 52 0 ) capacitor c=0.00238698f
c388 ( 49 0 ) capacitor c=0.0164573f
c389 ( 44 0 ) capacitor c=0.0137458f
c390 ( 34 0 ) capacitor c=0.00720742f
c391 ( 32 0 ) capacitor c=1.71538e-19
c392 ( 27 0 ) capacitor c=0.0180048f
c393 ( 26 0 ) capacitor c=1.70133e-19
c394 ( 24 0 ) capacitor c=1.6206e-19
c395 ( 23 0 ) capacitor c=0.00248016f
c396 ( 22 0 ) capacitor c=0.00153059f
c397 ( 21 0 ) capacitor c=0.00152809f
c398 ( 20 0 ) capacitor c=0.00469019f
c399 ( 16 0 ) capacitor c=2.55217e-19
c400 ( 15 0 ) capacitor c=0.00133122f
c401 ( 14 0 ) capacitor c=1.28624e-19
c402 ( 13 0 ) capacitor c=0.00238699f
c403 ( 10 0 ) capacitor c=0.0166257f
c404 ( 5 0 ) capacitor c=0.0137907f
r405 (  150 151 ) resistor r=0.169917 //w=1.24e-07 //layer=ME2_C //x=7.815 \
 //y=0.88 //x2=7.965 //y2=0.88
r406 (  148 149 ) resistor r=1.593 //w=1e-07 //layer=ME2_C //x=4.915 //y=0.88 \
 //x2=5.977 //y2=0.88
r407 (  147 148 ) resistor r=0.326008 //w=1.2e-07 //layer=ME2_C //x=4.64 \
 //y=0.88 //x2=4.915 //y2=0.88
r408 (  146 147 ) resistor r=0.458776 //w=1.24e-07 //layer=ME2_C //x=4.235 \
 //y=0.88 //x2=4.64 //y2=0.88
r409 (  140 141 ) resistor r=0.0154059 //w=1.1e-07 //layer=ME1_C //x=12.825 \
 //y=1.28 //x2=12.835 //y2=1.28
r410 (  131 132 ) resistor r=2 //w=1e-07 //layer=VIA2_C //x=1.42 //y=0.88 \
 //x2=1.42 //y2=0.88
r411 (  128 131 ) resistor r=0.402137 //w=1.24e-07 //layer=ME3_C //x=1.065 \
 //y=0.88 //x2=1.42 //y2=0.88
r412 (  126 151 ) resistor r=0.169917 //w=1.24e-07 //layer=ME2_C //x=8.115 \
 //y=0.88 //x2=7.965 //y2=0.88
r413 (  125 140 ) resistor r=0.286844 //w=1.44e-07 //layer=ME1_C //x=12.545 \
 //y=1.28 //x2=12.825 //y2=1.28
r414 (  124 125 ) resistor r=2 //w=1e-07 //layer=VIA1_C //x=12.545 //y=1.28 \
 //x2=12.545 //y2=1.28
r415 (  122 124 ) resistor r=0.8175 //w=1e-07 //layer=ME2_C //x=12 //y=1.28 \
 //x2=12.545 //y2=1.28
r416 (  120 121 ) resistor r=0.142437 //w=1.05e-07 //layer=ME2_C //x=11.95 \
 //y=1.63 //x2=11.95 //y2=1.73
r417 (  119 120 ) resistor r=0.091 //w=1.48e-07 //layer=ME2_C //x=11.95 \
 //y=1.53 //x2=11.95 //y2=1.63
r418 (  118 119 ) resistor r=0.142437 //w=1.05e-07 //layer=ME2_C //x=11.95 \
 //y=1.43 //x2=11.95 //y2=1.53
r419 (  117 121 ) resistor r=0.091 //w=1.48e-07 //layer=ME2_C //x=11.95 \
 //y=1.83 //x2=11.95 //y2=1.73
r420 (  116 122 ) resistor r=0.0838093 //w=1e-07 //layer=ME2_C //x=11.95 \
 //y=1.33 //x2=12 //y2=1.28
r421 (  116 118 ) resistor r=0.091 //w=1.48e-07 //layer=ME2_C //x=11.95 \
 //y=1.33 //x2=11.95 //y2=1.43
r422 (  114 115 ) resistor r=2.2875 //w=1e-07 //layer=ME2_C //x=10.275 \
 //y=1.88 //x2=11.8 //y2=1.88
r423 (  113 114 ) resistor r=0.616452 //w=1.2e-07 //layer=ME2_C //x=9.755 \
 //y=1.88 //x2=10.275 //y2=1.88
r424 (  112 113 ) resistor r=2.0775 //w=1e-07 //layer=ME2_C //x=8.37 //y=1.88 \
 //x2=9.755 //y2=1.88
r425 (  111 112 ) resistor r=0.175581 //w=1.24e-07 //layer=ME2_C //x=8.215 \
 //y=1.88 //x2=8.37 //y2=1.88
r426 (  110 117 ) resistor r=0.0838093 //w=1e-07 //layer=ME2_C //x=11.9 \
 //y=1.88 //x2=11.95 //y2=1.83
r427 (  110 115 ) resistor r=0.113278 //w=1.24e-07 //layer=ME2_C //x=11.9 \
 //y=1.88 //x2=11.8 //y2=1.88
r428 (  108 109 ) resistor r=0.111828 //w=1.27e-07 //layer=ME2_C //x=8.165 \
 //y=1.63 //x2=8.165 //y2=1.73
r429 (  107 108 ) resistor r=0.091 //w=1.48e-07 //layer=ME2_C //x=8.165 \
 //y=1.53 //x2=8.165 //y2=1.63
r430 (  106 107 ) resistor r=0.111828 //w=1.27e-07 //layer=ME2_C //x=8.165 \
 //y=1.43 //x2=8.165 //y2=1.53
r431 (  105 106 ) resistor r=0.091 //w=1.48e-07 //layer=ME2_C //x=8.165 \
 //y=1.33 //x2=8.165 //y2=1.43
r432 (  104 105 ) resistor r=0.111828 //w=1.27e-07 //layer=ME2_C //x=8.165 \
 //y=1.23 //x2=8.165 //y2=1.33
r433 (  103 104 ) resistor r=0.091 //w=1.48e-07 //layer=ME2_C //x=8.165 \
 //y=1.13 //x2=8.165 //y2=1.23
r434 (  102 103 ) resistor r=0.111828 //w=1.27e-07 //layer=ME2_C //x=8.165 \
 //y=1.03 //x2=8.165 //y2=1.13
r435 (  101 111 ) resistor r=0.0838093 //w=1e-07 //layer=ME2_C //x=8.165 \
 //y=1.83 //x2=8.215 //y2=1.88
r436 (  101 109 ) resistor r=0.091 //w=1.48e-07 //layer=ME2_C //x=8.165 \
 //y=1.83 //x2=8.165 //y2=1.73
r437 (  100 126 ) resistor r=0.0838093 //w=1e-07 //layer=ME2_C //x=8.165 \
 //y=0.93 //x2=8.115 //y2=0.88
r438 (  100 102 ) resistor r=0.091 //w=1.48e-07 //layer=ME2_C //x=8.165 \
 //y=0.93 //x2=8.165 //y2=1.03
r439 (  97 141 ) resistor r=0.0154059 //w=1.1e-07 //layer=ME1_C //x=12.845 \
 //y=1.28 //x2=12.835 //y2=1.28
r440 (  96 136 ) resistor r=8.11765 //w=1.68e-07 //layer=PLY_C //x=12.92 \
 //y=1.305 //x2=13.035 //y2=1.305
r441 (  95 97 ) resistor r=0.101646 //w=1.42e-07 //layer=ME1_C //x=12.92 \
 //y=1.305 //x2=12.845 //y2=1.305
r442 (  95 96 ) resistor r=30 //w=9e-08 //layer=PO_CONT_C //x=12.92 //y=1.305 \
 //x2=12.92 //y2=1.305
r443 (  90 136 ) resistor r=6.80931 //w=6e-08 //layer=PLY_C //x=13.035 \
 //y=1.39 //x2=13.035 //y2=1.305
r444 (  90 92 ) resistor r=55 //w=6e-08 //layer=PLY_C //x=13.035 //y=1.39 \
 //x2=13.035 //y2=1.665
r445 (  87 136 ) resistor r=6.80931 //w=6e-08 //layer=PLY_C //x=13.035 \
 //y=1.22 //x2=13.035 //y2=1.305
r446 (  87 89 ) resistor r=33 //w=6e-08 //layer=PLY_C //x=13.035 //y=1.22 \
 //x2=13.035 //y2=1.055
r447 (  72 150 ) resistor r=1.1625 //w=1e-07 //layer=ME2_C //x=7.04 //y=0.88 \
 //x2=7.815 //y2=0.88
r448 (  72 149 ) resistor r=1.5945 //w=1e-07 //layer=ME2_C //x=7.04 //y=0.88 \
 //x2=5.977 //y2=0.88
r449 (  72 73 ) resistor r=2 //w=1e-07 //layer=VIA1_C //x=7.04 //y=0.88 \
 //x2=7.04 //y2=0.88
r450 (  70 71 ) resistor r=0.0148805 //w=1.5e-07 //layer=ME1_C //x=6.7 \
 //y=1.305 //x2=6.715 //y2=1.305
r451 (  65 70 ) resistor r=0.0448889 //w=1.58e-07 //layer=ME1_C //x=6.65 \
 //y=1.305 //x2=6.7 //y2=1.305
r452 (  65 66 ) resistor r=30 //w=9e-08 //layer=PO_CONT_C //x=6.65 //y=1.305 \
 //x2=6.65 //y2=1.305
r453 (  62 63 ) resistor r=0.0212913 //w=1.15e-07 //layer=ME1_C //x=7.04 \
 //y=1.23 //x2=7.04 //y2=1.245
r454 (  61 62 ) resistor r=0.132171 //w=1.21e-07 //layer=ME1_C //x=7.04 \
 //y=1.13 //x2=7.04 //y2=1.23
r455 (  60 61 ) resistor r=0.220769 //w=1.04e-07 //layer=ME1_C //x=7.04 //y=1 \
 //x2=7.04 //y2=1.13
r456 (  59 63 ) resistor r=0.0212913 //w=1.15e-07 //layer=ME1_C //x=7.04 \
 //y=1.26 //x2=7.04 //y2=1.245
r457 (  58 73 ) resistor r=0.0977818 //w=1.32e-07 //layer=ME1_C //x=7.04 \
 //y=0.96 //x2=7.04 //y2=0.88
r458 (  58 60 ) resistor r=0.0519647 //w=1.23e-07 //layer=ME1_C //x=7.04 \
 //y=0.96 //x2=7.04 //y2=1
r459 (  56 57 ) resistor r=0.00554667 //w=1.36e-07 //layer=ME1_C //x=6.985 \
 //y=1.305 //x2=6.99 //y2=1.305
r460 (  55 56 ) resistor r=0.133333 //w=1.4e-07 //layer=ME1_C //x=6.86 \
 //y=1.305 //x2=6.985 //y2=1.305
r461 (  54 55 ) resistor r=0.0130679 //w=1.22e-07 //layer=ME1_C //x=6.85 \
 //y=1.305 //x2=6.86 //y2=1.305
r462 (  53 71 ) resistor r=0.0109805 //w=1.43e-07 //layer=ME1_C //x=6.725 \
 //y=1.305 //x2=6.715 //y2=1.305
r463 (  53 54 ) resistor r=0.207591 //w=1.05e-07 //layer=ME1_C //x=6.725 \
 //y=1.305 //x2=6.85 //y2=1.305
r464 (  52 59 ) resistor r=0.0949839 //w=9e-08 //layer=ME1_C //x=6.995 \
 //y=1.305 //x2=7.04 //y2=1.26
r465 (  52 57 ) resistor r=0.00554667 //w=1.36e-07 //layer=ME1_C //x=6.995 \
 //y=1.305 //x2=6.99 //y2=1.305
r466 (  47 66 ) resistor r=11.3264 //w=1.68e-07 //layer=PLY_C //x=6.65 \
 //y=1.39 //x2=6.65 //y2=1.305
r467 (  47 49 ) resistor r=55 //w=6e-08 //layer=PLY_C //x=6.65 //y=1.39 \
 //x2=6.65 //y2=1.665
r468 (  44 66 ) resistor r=11.3264 //w=1.68e-07 //layer=PLY_C //x=6.65 \
 //y=1.22 //x2=6.65 //y2=1.305
r469 (  44 46 ) resistor r=33 //w=6e-08 //layer=PLY_C //x=6.65 //y=1.22 \
 //x2=6.65 //y2=1.055
r470 (  33 146 ) resistor r=1.1625 //w=1e-07 //layer=ME2_C //x=3.46 //y=0.88 \
 //x2=4.235 //y2=0.88
r471 (  33 132 ) resistor r=3.06 //w=1e-07 //layer=ME2_C //x=3.46 //y=0.88 \
 //x2=1.42 //y2=0.88
r472 (  33 34 ) resistor r=2 //w=1e-07 //layer=VIA1_C //x=3.46 //y=0.88 \
 //x2=3.46 //y2=0.88
r473 (  31 32 ) resistor r=0.0148805 //w=1.5e-07 //layer=ME1_C //x=3.12 \
 //y=1.305 //x2=3.135 //y2=1.305
r474 (  26 31 ) resistor r=0.0448889 //w=1.58e-07 //layer=ME1_C //x=3.07 \
 //y=1.305 //x2=3.12 //y2=1.305
r475 (  26 27 ) resistor r=30 //w=9e-08 //layer=PO_CONT_C //x=3.07 //y=1.305 \
 //x2=3.07 //y2=1.305
r476 (  23 24 ) resistor r=0.0212913 //w=1.15e-07 //layer=ME1_C //x=3.46 \
 //y=1.23 //x2=3.46 //y2=1.245
r477 (  22 23 ) resistor r=0.132171 //w=1.21e-07 //layer=ME1_C //x=3.46 \
 //y=1.13 //x2=3.46 //y2=1.23
r478 (  21 22 ) resistor r=0.220769 //w=1.04e-07 //layer=ME1_C //x=3.46 //y=1 \
 //x2=3.46 //y2=1.13
r479 (  20 24 ) resistor r=0.0212913 //w=1.15e-07 //layer=ME1_C //x=3.46 \
 //y=1.26 //x2=3.46 //y2=1.245
r480 (  19 34 ) resistor r=0.0977818 //w=1.32e-07 //layer=ME1_C //x=3.46 \
 //y=0.96 //x2=3.46 //y2=0.88
r481 (  19 21 ) resistor r=0.0519647 //w=1.23e-07 //layer=ME1_C //x=3.46 \
 //y=0.96 //x2=3.46 //y2=1
r482 (  17 18 ) resistor r=0.00554667 //w=1.36e-07 //layer=ME1_C //x=3.405 \
 //y=1.305 //x2=3.41 //y2=1.305
r483 (  16 17 ) resistor r=0.133333 //w=1.4e-07 //layer=ME1_C //x=3.28 \
 //y=1.305 //x2=3.405 //y2=1.305
r484 (  15 16 ) resistor r=0.0130679 //w=1.22e-07 //layer=ME1_C //x=3.27 \
 //y=1.305 //x2=3.28 //y2=1.305
r485 (  14 32 ) resistor r=0.0109805 //w=1.43e-07 //layer=ME1_C //x=3.145 \
 //y=1.305 //x2=3.135 //y2=1.305
r486 (  14 15 ) resistor r=0.207591 //w=1.05e-07 //layer=ME1_C //x=3.145 \
 //y=1.305 //x2=3.27 //y2=1.305
r487 (  13 20 ) resistor r=0.0949839 //w=9e-08 //layer=ME1_C //x=3.415 \
 //y=1.305 //x2=3.46 //y2=1.26
r488 (  13 18 ) resistor r=0.00554667 //w=1.36e-07 //layer=ME1_C //x=3.415 \
 //y=1.305 //x2=3.41 //y2=1.305
r489 (  8 27 ) resistor r=11.3264 //w=1.68e-07 //layer=PLY_C //x=3.07 //y=1.39 \
 //x2=3.07 //y2=1.305
r490 (  8 10 ) resistor r=55 //w=6e-08 //layer=PLY_C //x=3.07 //y=1.39 \
 //x2=3.07 //y2=1.665
r491 (  5 27 ) resistor r=11.3264 //w=1.68e-07 //layer=PLY_C //x=3.07 //y=1.22 \
 //x2=3.07 //y2=1.305
r492 (  5 7 ) resistor r=33 //w=6e-08 //layer=PLY_C //x=3.07 //y=1.22 \
 //x2=3.07 //y2=1.055
ends PM_MS_JK_FF\%CLK

subckt PM_MS_JK_FF\%J ( 7 10 14 15 16 19 21 22 23 24 26 36 39 41 42 )
c106 ( 42 0 ) capacitor c=0.00130875f
c107 ( 41 0 ) capacitor c=0.00555224f
c108 ( 39 0 ) capacitor c=0.0011576f
c109 ( 26 0 ) capacitor c=0.00992436f
c110 ( 24 0 ) capacitor c=0.00663857f
c111 ( 23 0 ) capacitor c=0.0187275f
c112 ( 19 0 ) capacitor c=0.0145655f
c113 ( 16 0 ) capacitor c=7.89381e-19
c114 ( 15 0 ) capacitor c=0.0010221f
c115 ( 14 0 ) capacitor c=3.06597e-19
c116 ( 10 0 ) capacitor c=0.0118189f
r117 (  41 42 ) resistor r=0.303 //w=1e-07 //layer=ME3_C //x=1.03 //y=1.28 \
 //x2=1.232 //y2=1.28
r118 (  39 42 ) resistor r=0.3045 //w=1e-07 //layer=ME3_C //x=1.435 //y=1.28 \
 //x2=1.232 //y2=1.28
r119 (  39 40 ) resistor r=2 //w=1e-07 //layer=VIA2_C //x=1.435 //y=1.28 \
 //x2=1.435 //y2=1.28
r120 (  36 41 ) resistor r=0.0339834 //w=1.24e-07 //layer=ME3_C //x=1 //y=1.28 \
 //x2=1.03 //y2=1.28
r121 (  24 32 ) resistor r=0.0228877 //w=1.58e-07 //layer=ME1_C //x=2.715 \
 //y=1.28 //x2=2.715 //y2=1.305
r122 (  23 40 ) resistor r=1.9125 //w=1e-07 //layer=ME2_C //x=2.71 //y=1.28 \
 //x2=1.435 //y2=1.28
r123 (  23 24 ) resistor r=2 //w=1e-07 //layer=VIA1_C //x=2.71 //y=1.28 \
 //x2=2.71 //y2=1.28
r124 (  21 22 ) resistor r=0.0145646 //w=1.53e-07 //layer=ME1_C //x=2.43 \
 //y=1.305 //x2=2.445 //y2=1.305
r125 (  19 27 ) resistor r=11.3264 //w=1.68e-07 //layer=PLY_C //x=2.4 \
 //y=1.305 //x2=2.4 //y2=1.39
r126 (  19 26 ) resistor r=11.3264 //w=1.68e-07 //layer=PLY_C //x=2.4 \
 //y=1.305 //x2=2.4 //y2=1.22
r127 (  18 21 ) resistor r=0.0269333 //w=1.58e-07 //layer=ME1_C //x=2.4 \
 //y=1.305 //x2=2.43 //y2=1.305
r128 (  18 19 ) resistor r=30 //w=9e-08 //layer=PO_CONT_C //x=2.4 //y=1.305 \
 //x2=2.4 //y2=1.305
r129 (  15 16 ) resistor r=0.0405429 //w=1.25e-07 //layer=ME1_C //x=2.575 \
 //y=1.305 //x2=2.607 //y2=1.305
r130 (  14 22 ) resistor r=0.0321693 //w=1.46e-07 //layer=ME1_C //x=2.475 \
 //y=1.305 //x2=2.445 //y2=1.305
r131 (  14 15 ) resistor r=0.159694 //w=1.08e-07 //layer=ME1_C //x=2.475 \
 //y=1.305 //x2=2.575 //y2=1.305
r132 (  13 32 ) resistor r=0.051916 //w=9e-08 //layer=ME1_C //x=2.64 //y=1.305 \
 //x2=2.715 //y2=1.305
r133 (  13 16 ) resistor r=0.0418098 //w=1.25e-07 //layer=ME1_C //x=2.64 \
 //y=1.305 //x2=2.607 //y2=1.305
r134 (  10 27 ) resistor r=55 //w=6e-08 //layer=PLY_C //x=2.375 //y=1.665 \
 //x2=2.375 //y2=1.39
r135 (  7 26 ) resistor r=33 //w=6e-08 //layer=PLY_C //x=2.375 //y=1.055 \
 //x2=2.375 //y2=1.22
ends PM_MS_JK_FF\%J

subckt PM_MS_JK_FF\%K ( 7 10 13 14 15 16 19 20 21 22 24 25 27 33 35 37 38 41 \
 42 43 46 52 53 )
c146 ( 53 0 ) capacitor c=3.98013e-19
c147 ( 52 0 ) capacitor c=0.00333449f
c148 ( 46 0 ) capacitor c=0.00203604f
c149 ( 43 0 ) capacitor c=0.00576923f
c150 ( 42 0 ) capacitor c=8.20719e-19
c151 ( 41 0 ) capacitor c=0.00874489f
c152 ( 38 0 ) capacitor c=1.3546e-19
c153 ( 37 0 ) capacitor c=0.00756303f
c154 ( 33 0 ) capacitor c=6.04808e-19
c155 ( 27 0 ) capacitor c=0.0117675f
c156 ( 25 0 ) capacitor c=0.00474263f
c157 ( 24 0 ) capacitor c=0.0170196f
c158 ( 21 0 ) capacitor c=7.16407e-20
c159 ( 20 0 ) capacitor c=0.0158036f
c160 ( 19 0 ) capacitor c=1.97346e-19
c161 ( 16 0 ) capacitor c=3.54381e-19
c162 ( 15 0 ) capacitor c=0.0152804f
c163 ( 14 0 ) capacitor c=0.00365889f
c164 ( 13 0 ) capacitor c=0.00106726f
c165 ( 10 0 ) capacitor c=0.0137798f
r166 (  52 53 ) resistor r=0.1455 //w=1e-07 //layer=ME2_C //x=4.915 //y=1.48 \
 //x2=5.012 //y2=1.48
r167 (  46 52 ) resistor r=0.152925 //w=1.24e-07 //layer=ME2_C //x=4.78 \
 //y=1.48 //x2=4.915 //y2=1.48
r168 (  45 46 ) resistor r=2 //w=1e-07 //layer=VIA2_C //x=4.78 //y=1.48 \
 //x2=4.78 //y2=1.48
r169 (  43 45 ) resistor r=0.5175 //w=1e-07 //layer=ME3_C //x=4.435 //y=1.48 \
 //x2=4.78 //y2=1.48
r170 (  41 42 ) resistor r=0.0455 //w=1.48e-07 //layer=ME3_C //x=4.385 \
 //y=1.33 //x2=4.385 //y2=1.38
r171 (  40 43 ) resistor r=0.0838093 //w=1e-07 //layer=ME3_C //x=4.385 \
 //y=1.43 //x2=4.435 //y2=1.48
r172 (  40 42 ) resistor r=0.0455 //w=1.48e-07 //layer=ME3_C //x=4.385 \
 //y=1.43 //x2=4.385 //y2=1.38
r173 (  39 41 ) resistor r=0.226556 //w=1.24e-07 //layer=ME3_C //x=4.385 \
 //y=1.13 //x2=4.385 //y2=1.33
r174 (  37 38 ) resistor r=0.0396473 //w=1.24e-07 //layer=ME3_C //x=1.5 \
 //y=1.08 //x2=1.535 //y2=1.08
r175 (  35 37 ) resistor r=0.7425 //w=1e-07 //layer=ME3_C //x=1.005 //y=1.08 \
 //x2=1.5 //y2=1.08
r176 (  33 39 ) resistor r=0.0838093 //w=1e-07 //layer=ME3_C //x=4.335 \
 //y=1.08 //x2=4.385 //y2=1.13
r177 (  33 38 ) resistor r=2.548 //w=1.48e-07 //layer=ME3_C //x=4.335 //y=1.08 \
 //x2=1.535 //y2=1.08
r178 (  24 53 ) resistor r=0.147 //w=1e-07 //layer=ME2_C //x=5.11 //y=1.48 \
 //x2=5.012 //y2=1.48
r179 (  24 25 ) resistor r=2 //w=1e-07 //layer=VIA1_C //x=5.11 //y=1.48 \
 //x2=5.11 //y2=1.48
r180 (  21 22 ) resistor r=0.00983738 //w=1.51e-07 //layer=ME1_C //x=5.635 \
 //y=1.31 //x2=5.645 //y2=1.31
r181 (  20 28 ) resistor r=11.3264 //w=1.68e-07 //layer=PLY_C //x=5.675 \
 //y=1.31 //x2=5.675 //y2=1.395
r182 (  20 27 ) resistor r=11.3264 //w=1.68e-07 //layer=PLY_C //x=5.675 \
 //y=1.31 //x2=5.675 //y2=1.225
r183 (  19 22 ) resistor r=0.0269333 //w=1.58e-07 //layer=ME1_C //x=5.675 \
 //y=1.31 //x2=5.645 //y2=1.31
r184 (  19 20 ) resistor r=30 //w=9e-08 //layer=PO_CONT_C //x=5.675 //y=1.31 \
 //x2=5.675 //y2=1.31
r185 (  17 25 ) resistor r=0.113314 //w=1.55e-07 //layer=ME1_C //x=5.112 \
 //y=1.355 //x2=5.112 //y2=1.48
r186 (  15 16 ) resistor r=0.0193696 //w=1.23e-07 //layer=ME1_C //x=5.485 \
 //y=1.31 //x2=5.5 //y2=1.31
r187 (  14 17 ) resistor r=0.101912 //w=9e-08 //layer=ME1_C //x=5.185 //y=1.31 \
 //x2=5.112 //y2=1.355
r188 (  14 15 ) resistor r=0.32 //w=1.4e-07 //layer=ME1_C //x=5.185 //y=1.31 \
 //x2=5.485 //y2=1.31
r189 (  13 21 ) resistor r=0.038255 //w=1.44e-07 //layer=ME1_C //x=5.6 \
 //y=1.31 //x2=5.635 //y2=1.31
r190 (  13 16 ) resistor r=0.164836 //w=1.06e-07 //layer=ME1_C //x=5.6 \
 //y=1.31 //x2=5.5 //y2=1.31
r191 (  10 28 ) resistor r=54 //w=6e-08 //layer=PLY_C //x=5.695 //y=1.665 \
 //x2=5.695 //y2=1.395
r192 (  7 27 ) resistor r=34 //w=6e-08 //layer=PLY_C //x=5.695 //y=1.055 \
 //x2=5.695 //y2=1.225
ends PM_MS_JK_FF\%K

subckt PM_MS_JK_FF\%NET22 ( 2 5 6 8 13 16 18 20 21 23 26 28 31 56 64 67 72 73 \
 74 77 79 80 81 82 84 102 105 109 )
c259 ( 109 0 ) capacitor c=0.00770569f
c260 ( 105 0 ) capacitor c=0.0157312f
c261 ( 102 0 ) capacitor c=4.45577e-19
c262 ( 87 0 ) capacitor c=9.91315e-19
c263 ( 84 0 ) capacitor c=0.0116303f
c264 ( 82 0 ) capacitor c=0.00642704f
c265 ( 81 0 ) capacitor c=0.013809f
c266 ( 80 0 ) capacitor c=1.26744e-19
c267 ( 77 0 ) capacitor c=0.0158181f
c268 ( 74 0 ) capacitor c=9.4836e-19
c269 ( 73 0 ) capacitor c=9.2587e-19
c270 ( 67 0 ) capacitor c=0.0177841f
c271 ( 56 0 ) capacitor c=0.00559235f
c272 ( 31 0 ) capacitor c=0.00407076f
c273 ( 25 0 ) capacitor c=5.33054e-19
c274 ( 21 0 ) capacitor c=0.00492434f
c275 ( 20 0 ) capacitor c=1.78297e-19
c276 ( 16 0 ) capacitor c=0.00581307f
c277 ( 13 0 ) capacitor c=5.55263e-19
c278 ( 8 0 ) capacitor c=0.00570409f
c279 ( 6 0 ) capacitor c=0.0197408f
c280 ( 5 0 ) capacitor c=0.264049f
c281 ( 2 0 ) capacitor c=0.0129242f
r282 (  111 112 ) resistor r=2 //w=1e-07 //layer=VIA2_C //x=8.455 //y=1.28 \
 //x2=8.455 //y2=1.28
r283 (  109 111 ) resistor r=0.66 //w=1e-07 //layer=ME3_C //x=8.015 //y=1.28 \
 //x2=8.455 //y2=1.28
r284 (  108 109 ) resistor r=0.0838093 //w=1e-07 //layer=ME3_C //x=7.965 \
 //y=1.23 //x2=8.015 //y2=1.28
r285 (  107 108 ) resistor r=0.091 //w=1.48e-07 //layer=ME3_C //x=7.965 \
 //y=1.13 //x2=7.965 //y2=1.23
r286 (  104 105 ) resistor r=2 //w=1e-07 //layer=VIA2_C //x=7.73 //y=1.08 \
 //x2=7.73 //y2=1.08
r287 (  102 107 ) resistor r=0.0838093 //w=1e-07 //layer=ME3_C //x=7.915 \
 //y=1.08 //x2=7.965 //y2=1.13
r288 (  102 104 ) resistor r=0.174585 //w=1.44e-07 //layer=ME3_C //x=7.915 \
 //y=1.08 //x2=7.73 //y2=1.08
r289 (  82 87 ) resistor r=0.099885 //w=1.4e-07 //layer=ME1_C //x=11.12 \
 //y=1.295 //x2=11.04 //y2=1.295
r290 (  81 112 ) resistor r=3.9975 //w=1e-07 //layer=ME2_C //x=11.12 //y=1.28 \
 //x2=8.455 //y2=1.28
r291 (  81 82 ) resistor r=2 //w=1e-07 //layer=VIA1_C //x=11.12 //y=1.28 \
 //x2=11.12 //y2=1.28
r292 (  79 80 ) resistor r=0.00496015 //w=1.5e-07 //layer=ME1_C //x=10.82 \
 //y=1.305 //x2=10.825 //y2=1.305
r293 (  77 85 ) resistor r=11.3264 //w=1.68e-07 //layer=PLY_C //x=10.79 \
 //y=1.305 //x2=10.79 //y2=1.39
r294 (  77 84 ) resistor r=11.3264 //w=1.68e-07 //layer=PLY_C //x=10.79 \
 //y=1.305 //x2=10.79 //y2=1.22
r295 (  76 79 ) resistor r=0.0269333 //w=1.58e-07 //layer=ME1_C //x=10.79 \
 //y=1.305 //x2=10.82 //y2=1.305
r296 (  76 77 ) resistor r=30 //w=9e-08 //layer=PO_CONT_C //x=10.79 //y=1.305 \
 //x2=10.79 //y2=1.305
r297 (  74 87 ) resistor r=0.0522714 //w=1.22e-07 //layer=ME1_C //x=11 \
 //y=1.305 //x2=11.04 //y2=1.305
r298 (  73 74 ) resistor r=0.0522714 //w=1.22e-07 //layer=ME1_C //x=10.96 \
 //y=1.305 //x2=11 //y2=1.305
r299 (  72 80 ) resistor r=0.0439221 //w=1.43e-07 //layer=ME1_C //x=10.865 \
 //y=1.305 //x2=10.825 //y2=1.305
r300 (  72 73 ) resistor r=0.157769 //w=1.05e-07 //layer=ME1_C //x=10.865 \
 //y=1.305 //x2=10.96 //y2=1.305
r301 (  67 85 ) resistor r=57 //w=5.8e-08 //layer=PLY_C //x=10.765 //y=1.675 \
 //x2=10.765 //y2=1.39
r302 (  64 84 ) resistor r=33 //w=6e-08 //layer=PLY_C //x=10.765 //y=1.055 \
 //x2=10.765 //y2=1.22
r303 (  55 56 ) resistor r=0.12963 //w=1.53e-07 //layer=ME1_C //x=7.272 \
 //y=1.35 //x2=7.272 //y2=1.49
r304 (  30 31 ) resistor r=35 //w=9e-08 //layer=DIF_CONT_C //x=6.78 //y=1.055 \
 //x2=6.78 //y2=1.055
r305 (  28 30 ) resistor r=5.5 //w=2e-07 //layer=NSD_C //x=6.68 //y=1.055 \
 //x2=6.78 //y2=1.055
r306 (  25 26 ) resistor r=17.5 //w=9e-08 //layer=DIF_CONT_C //x=6.78 \
 //y=1.565 //x2=6.78 //y2=1.565
r307 (  23 25 ) resistor r=2.25 //w=4e-07 //layer=PSD_C //x=6.68 //y=1.665 \
 //x2=6.78 //y2=1.665
r308 (  20 21 ) resistor r=17.5 //w=9e-08 //layer=DIF_CONT_C //x=6.085 \
 //y=1.565 //x2=6.085 //y2=1.565
r309 (  18 20 ) resistor r=2.25 //w=4e-07 //layer=PSD_C //x=5.985 //y=1.665 \
 //x2=6.085 //y2=1.665
r310 (  15 16 ) resistor r=17.5 //w=9e-08 //layer=DIF_CONT_C //x=5.565 \
 //y=1.565 //x2=5.565 //y2=1.565
r311 (  13 15 ) resistor r=2.25 //w=4e-07 //layer=PSD_C //x=5.665 //y=1.665 \
 //x2=5.565 //y2=1.665
r312 (  12 16 ) resistor r=0.119284 //w=1.44e-07 //layer=ME1_C //x=5.567 \
 //y=1.68 //x2=5.567 //y2=1.565
r313 (  11 12 ) resistor r=2 //w=1e-07 //layer=VIA1_C //x=5.565 //y=1.68 \
 //x2=5.565 //y2=1.68
r314 (  10 21 ) resistor r=0.122692 //w=1.41e-07 //layer=ME1_C //x=6.09 \
 //y=1.68 //x2=6.09 //y2=1.565
r315 (  9 11 ) resistor r=0.78 //w=1e-07 //layer=ME2_C //x=6.085 //y=1.68 \
 //x2=5.565 //y2=1.68
r316 (  9 10 ) resistor r=2 //w=1e-07 //layer=VIA1_C //x=6.085 //y=1.68 \
 //x2=6.085 //y2=1.68
r317 (  8 26 ) resistor r=0.118251 //w=1.45e-07 //layer=ME1_C //x=6.782 \
 //y=1.68 //x2=6.782 //y2=1.565
r318 (  7 9 ) resistor r=1.05 //w=1e-07 //layer=ME2_C //x=6.785 //y=1.68 \
 //x2=6.085 //y2=1.68
r319 (  7 8 ) resistor r=2 //w=1e-07 //layer=VIA1_C //x=6.785 //y=1.68 \
 //x2=6.785 //y2=1.68
r320 (  6 56 ) resistor r=0.176082 //w=1.53e-07 //layer=ME1_C //x=7.272 \
 //y=1.68 //x2=7.272 //y2=1.49
r321 (  5 7 ) resistor r=0.735 //w=1e-07 //layer=ME2_C //x=7.275 //y=1.68 \
 //x2=6.785 //y2=1.68
r322 (  5 6 ) resistor r=2 //w=1e-07 //layer=VIA1_C //x=7.275 //y=1.68 \
 //x2=7.275 //y2=1.68
r323 (  3 31 ) resistor r=2 //w=1e-07 //layer=VIA1_C //x=6.78 //y=1.08 \
 //x2=6.78 //y2=1.08
r324 (  2 55 ) resistor r=0.280059 //w=1.44e-07 //layer=ME1_C //x=7.272 \
 //y=1.08 //x2=7.272 //y2=1.35
r325 (  1 105 ) resistor r=0.6825 //w=1e-07 //layer=ME2_C //x=7.275 //y=1.08 \
 //x2=7.73 //y2=1.08
r326 (  1 3 ) resistor r=0.7425 //w=1e-07 //layer=ME2_C //x=7.275 //y=1.08 \
 //x2=6.78 //y2=1.08
r327 (  1 2 ) resistor r=2 //w=1e-07 //layer=VIA1_C //x=7.275 //y=1.08 \
 //x2=7.275 //y2=1.08
ends PM_MS_JK_FF\%NET22

subckt PM_MS_JK_FF\%NET23 ( 1 2 6 8 13 16 18 20 21 23 26 28 30 31 56 64 67 71 \
 72 73 74 77 78 79 80 82 83 85 101 104 106 107 108 109 112 )
c270 ( 112 0 ) capacitor c=0.0202843f
c271 ( 109 0 ) capacitor c=0.0126917f
c272 ( 108 0 ) capacitor c=3.96196e-19
c273 ( 107 0 ) capacitor c=0.0112462f
c274 ( 106 0 ) capacitor c=0.00410828f
c275 ( 104 0 ) capacitor c=0.251958f
c276 ( 101 0 ) capacitor c=5.44215e-19
c277 ( 85 0 ) capacitor c=0.0115625f
c278 ( 83 0 ) capacitor c=0.0042121f
c279 ( 82 0 ) capacitor c=0.0182024f
c280 ( 80 0 ) capacitor c=8.73857e-21
c281 ( 79 0 ) capacitor c=1.12958e-19
c282 ( 78 0 ) capacitor c=0.0161371f
c283 ( 77 0 ) capacitor c=8.53412e-20
c284 ( 74 0 ) capacitor c=3.54381e-19
c285 ( 73 0 ) capacitor c=0.013f
c286 ( 72 0 ) capacitor c=0.00306412f
c287 ( 71 0 ) capacitor c=0.0010888f
c288 ( 67 0 ) capacitor c=0.0167654f
c289 ( 56 0 ) capacitor c=0.00551192f
c290 ( 31 0 ) capacitor c=0.00407828f
c291 ( 25 0 ) capacitor c=3.80494e-19
c292 ( 21 0 ) capacitor c=0.00492015f
c293 ( 20 0 ) capacitor c=2.21885e-19
c294 ( 16 0 ) capacitor c=0.00540612f
c295 ( 13 0 ) capacitor c=4.08228e-19
c296 ( 8 0 ) capacitor c=0.00576315f
c297 ( 6 0 ) capacitor c=0.0199844f
c298 ( 2 0 ) capacitor c=0.0124277f
c299 ( 1 0 ) capacitor c=0.0116437f
r300 (  114 115 ) resistor r=2 //w=1e-07 //layer=VIA2_C //x=8.485 //y=1.48 \
 //x2=8.485 //y2=1.48
r301 (  112 114 ) resistor r=0.705 //w=1e-07 //layer=ME3_C //x=8.015 //y=1.48 \
 //x2=8.485 //y2=1.48
r302 (  110 112 ) resistor r=0.0838093 //w=1e-07 //layer=ME3_C //x=7.965 \
 //y=1.53 //x2=8.015 //y2=1.48
r303 (  110 111 ) resistor r=0.091 //w=1.48e-07 //layer=ME3_C //x=7.965 \
 //y=1.53 //x2=7.965 //y2=1.63
r304 (  108 109 ) resistor r=1.33668 //w=1.24e-07 //layer=ME3_C //x=5.555 \
 //y=1.68 //x2=6.735 //y2=1.68
r305 (  107 108 ) resistor r=0.0118548 //w=1.2e-07 //layer=ME3_C //x=5.545 \
 //y=1.68 //x2=5.555 //y2=1.68
r306 (  106 107 ) resistor r=1.815 //w=1e-07 //layer=ME3_C //x=4.335 //y=1.68 \
 //x2=5.545 //y2=1.68
r307 (  103 106 ) resistor r=0.226556 //w=1.24e-07 //layer=ME3_C //x=4.135 \
 //y=1.68 //x2=4.335 //y2=1.68
r308 (  103 104 ) resistor r=2 //w=1e-07 //layer=VIA2_C //x=4.135 //y=1.68 \
 //x2=4.135 //y2=1.68
r309 (  101 111 ) resistor r=0.0838093 //w=1e-07 //layer=ME3_C //x=7.915 \
 //y=1.68 //x2=7.965 //y2=1.63
r310 (  101 109 ) resistor r=1.33668 //w=1.24e-07 //layer=ME3_C //x=7.915 \
 //y=1.68 //x2=6.735 //y2=1.68
r311 (  82 115 ) resistor r=0.375 //w=1e-07 //layer=ME2_C //x=8.735 //y=1.48 \
 //x2=8.485 //y2=1.48